1



                                 *********************************************

                                    NUMERICAL ELECTROMAGNETICS CODE (NEC-2D)

                                 *********************************************




                                     - - - - COMMENTS - - - -


                          Moxon rectangle by equation as descibed by                                 
                          L.B. Cebik in www.cebik.com/moxon/moxgen.html                              
                          Comparison with model created using MoxGen                                 
                          (www.qsl.net/ac6la/) yields equal results.                                 
                                                                                                     




                                 - - - STRUCTURE SPECIFICATION - - -

                                     COORDINATES MUST BE INPUT IN
                                     METERS OR BE SCALED TO METERS
                                     BEFORE STRUCTURE INPUT IS ENDED


  WIRE                                                                               NO. OF    FIRST  LAST     TAG
  NO.        X1         Y1         Z1          X2         Y2         Z2      RADIUS   SEG.     SEG.   SEG.     NO.
     1    2.55840   -7.72264   20.00000     2.55840    7.72264   20.00000    0.00050     35        1    35       1
     2    0.16848   -7.72264   20.00000     2.55840   -7.72264   20.00000    0.00050      5       36    40       2
     3    2.55840    7.72264   20.00000     0.16848    7.72264   20.00000    0.00050      5       41    45       3
     4   -3.00427   -7.72264   20.00000    -3.00427    7.72264   20.00000    0.00050     35       46    80       4
     5   -0.16848   -7.72264   20.00000    -3.00427   -7.72264   20.00000    0.00050      7       81    87       5
     6   -3.00427    7.72264   20.00000    -0.16848    7.72264   20.00000    0.00050      7       88    94       6

   TOTAL SEGMENTS USED=   94     NO. SEG. IN A SYMMETRIC CELL=   94     SYMMETRY FLAG=  0


         - MULTIPLE WIRE JUNCTIONS -
 JUNCTION    SEGMENTS  (- FOR END 1, + FOR END 2)
  NONE




                                 - - - - SEGMENTATION DATA - - - -

                                        COORDINATES IN METERS

                         I+ AND I- INDICATE THE SEGMENTS BEFORE AND AFTER I


  SEG.   COORDINATES OF SEG. CENTER     SEG.     ORIENTATION ANGLES    WIRE    CONNECTION DATA   TAG
  NO.       X         Y         Z       LENGTH     ALPHA     BETA      RADIUS    I-   I    I+    NO.
     1   2.55840  -7.50199  20.00000   0.44129    0.00000  90.00000   0.00050    40    1    2      1
     2   2.55840  -7.06070  20.00000   0.44129    0.00000  90.00000   0.00050     1    2    3      1
     3   2.55840  -6.61940  20.00000   0.44129    0.00000  90.00000   0.00050     2    3    4      1
     4   2.55840  -6.17811  20.00000   0.44129    0.00000  90.00000   0.00050     3    4    5      1
     5   2.55840  -5.73682  20.00000   0.44129    0.00000  90.00000   0.00050     4    5    6      1
     6   2.55840  -5.29552  20.00000   0.44129    0.00000  90.00000   0.00050     5    6    7      1
     7   2.55840  -4.85423  20.00000   0.44129    0.00000  90.00000   0.00050     6    7    8      1
     8   2.55840  -4.41293  20.00000   0.44129    0.00000  90.00000   0.00050     7    8    9      1
     9   2.55840  -3.97164  20.00000   0.44129    0.00000  90.00000   0.00050     8    9   10      1
    10   2.55840  -3.53035  20.00000   0.44129    0.00000  90.00000   0.00050     9   10   11      1
    11   2.55840  -3.08905  20.00000   0.44129    0.00000  90.00000   0.00050    10   11   12      1
    12   2.55840  -2.64776  20.00000   0.44129    0.00000  90.00000   0.00050    11   12   13      1
    13   2.55840  -2.20647  20.00000   0.44129    0.00000  90.00000   0.00050    12   13   14      1
    14   2.55840  -1.76517  20.00000   0.44129    0.00000  90.00000   0.00050    13   14   15      1
    15   2.55840  -1.32388  20.00000   0.44129    0.00000  90.00000   0.00050    14   15   16      1
    16   2.55840  -0.88259  20.00000   0.44129    0.00000  90.00000   0.00050    15   16   17      1
    17   2.55840  -0.44129  20.00000   0.44129    0.00000  90.00000   0.00050    16   17   18      1
    18   2.55840   0.00000  20.00000   0.44129    0.00000  90.00000   0.00050    17   18   19      1
    19   2.55840   0.44129  20.00000   0.44129    0.00000  90.00000   0.00050    18   19   20      1
    20   2.55840   0.88259  20.00000   0.44129    0.00000  90.00000   0.00050    19   20   21      1
    21   2.55840   1.32388  20.00000   0.44129    0.00000  90.00000   0.00050    20   21   22      1
    22   2.55840   1.76517  20.00000   0.44129    0.00000  90.00000   0.00050    21   22   23      1
    23   2.55840   2.20647  20.00000   0.44129    0.00000  90.00000   0.00050    22   23   24      1
    24   2.55840   2.64776  20.00000   0.44129    0.00000  90.00000   0.00050    23   24   25      1
    25   2.55840   3.08905  20.00000   0.44129    0.00000  90.00000   0.00050    24   25   26      1
    26   2.55840   3.53035  20.00000   0.44129    0.00000  90.00000   0.00050    25   26   27      1
    27   2.55840   3.97164  20.00000   0.44129    0.00000  90.00000   0.00050    26   27   28      1
    28   2.55840   4.41293  20.00000   0.44129    0.00000  90.00000   0.00050    27   28   29      1
    29   2.55840   4.85423  20.00000   0.44129    0.00000  90.00000   0.00050    28   29   30      1
    30   2.55840   5.29552  20.00000   0.44129    0.00000  90.00000   0.00050    29   30   31      1
    31   2.55840   5.73682  20.00000   0.44129    0.00000  90.00000   0.00050    30   31   32      1
    32   2.55840   6.17811  20.00000   0.44129    0.00000  90.00000   0.00050    31   32   33      1
    33   2.55840   6.61940  20.00000   0.44129    0.00000  90.00000   0.00050    32   33   34      1
    34   2.55840   7.06070  20.00000   0.44129    0.00000  90.00000   0.00050    33   34   35      1
    35   2.55840   7.50199  20.00000   0.44129    0.00000  90.00000   0.00050    34   35   41      1
    36   0.40747  -7.72264  20.00000   0.47799    0.00000   0.00000   0.00050     0   36   37      2
    37   0.88545  -7.72264  20.00000   0.47799    0.00000   0.00000   0.00050    36   37   38      2
    38   1.36344  -7.72264  20.00000   0.47799    0.00000   0.00000   0.00050    37   38   39      2
    39   1.84142  -7.72264  20.00000   0.47799    0.00000   0.00000   0.00050    38   39   40      2
    40   2.31941  -7.72264  20.00000   0.47799    0.00000   0.00000   0.00050    39   40    1      2
    41   2.31941   7.72264  20.00000   0.47799    0.00000 180.00000   0.00050    35   41   42      3
    42   1.84142   7.72264  20.00000   0.47799    0.00000 180.00000   0.00050    41   42   43      3
    43   1.36344   7.72264  20.00000   0.47799    0.00000 180.00000   0.00050    42   43   44      3
    44   0.88545   7.72264  20.00000   0.47799    0.00000 180.00000   0.00050    43   44   45      3
    45   0.40747   7.72264  20.00000   0.47799    0.00000 180.00000   0.00050    44   45    0      3
    46  -3.00427  -7.50199  20.00000   0.44129    0.00000  90.00000   0.00050    87   46   47      4
    47  -3.00427  -7.06070  20.00000   0.44129    0.00000  90.00000   0.00050    46   47   48      4
    48  -3.00427  -6.61940  20.00000   0.44129    0.00000  90.00000   0.00050    47   48   49      4
    49  -3.00427  -6.17811  20.00000   0.44129    0.00000  90.00000   0.00050    48   49   50      4
    50  -3.00427  -5.73682  20.00000   0.44129    0.00000  90.00000   0.00050    49   50   51      4
    51  -3.00427  -5.29552  20.00000   0.44129    0.00000  90.00000   0.00050    50   51   52      4
    52  -3.00427  -4.85423  20.00000   0.44129    0.00000  90.00000   0.00050    51   52   53      4
    53  -3.00427  -4.41293  20.00000   0.44129    0.00000  90.00000   0.00050    52   53   54      4
    54  -3.00427  -3.97164  20.00000   0.44129    0.00000  90.00000   0.00050    53   54   55      4
    55  -3.00427  -3.53035  20.00000   0.44129    0.00000  90.00000   0.00050    54   55   56      4
    56  -3.00427  -3.08905  20.00000   0.44129    0.00000  90.00000   0.00050    55   56   57      4
    57  -3.00427  -2.64776  20.00000   0.44129    0.00000  90.00000   0.00050    56   57   58      4
    58  -3.00427  -2.20647  20.00000   0.44129    0.00000  90.00000   0.00050    57   58   59      4
    59  -3.00427  -1.76517  20.00000   0.44129    0.00000  90.00000   0.00050    58   59   60      4
    60  -3.00427  -1.32388  20.00000   0.44129    0.00000  90.00000   0.00050    59   60   61      4
    61  -3.00427  -0.88259  20.00000   0.44129    0.00000  90.00000   0.00050    60   61   62      4
    62  -3.00427  -0.44129  20.00000   0.44129    0.00000  90.00000   0.00050    61   62   63      4
    63  -3.00427   0.00000  20.00000   0.44129    0.00000  90.00000   0.00050    62   63   64      4
    64  -3.00427   0.44129  20.00000   0.44129    0.00000  90.00000   0.00050    63   64   65      4
    65  -3.00427   0.88259  20.00000   0.44129    0.00000  90.00000   0.00050    64   65   66      4
    66  -3.00427   1.32388  20.00000   0.44129    0.00000  90.00000   0.00050    65   66   67      4
    67  -3.00427   1.76517  20.00000   0.44129    0.00000  90.00000   0.00050    66   67   68      4
    68  -3.00427   2.20647  20.00000   0.44129    0.00000  90.00000   0.00050    67   68   69      4
    69  -3.00427   2.64776  20.00000   0.44129    0.00000  90.00000   0.00050    68   69   70      4
    70  -3.00427   3.08905  20.00000   0.44129    0.00000  90.00000   0.00050    69   70   71      4
    71  -3.00427   3.53035  20.00000   0.44129    0.00000  90.00000   0.00050    70   71   72      4
    72  -3.00427   3.97164  20.00000   0.44129    0.00000  90.00000   0.00050    71   72   73      4
    73  -3.00427   4.41293  20.00000   0.44129    0.00000  90.00000   0.00050    72   73   74      4
    74  -3.00427   4.85423  20.00000   0.44129    0.00000  90.00000   0.00050    73   74   75      4
    75  -3.00427   5.29552  20.00000   0.44129    0.00000  90.00000   0.00050    74   75   76      4
    76  -3.00427   5.73682  20.00000   0.44129    0.00000  90.00000   0.00050    75   76   77      4
    77  -3.00427   6.17811  20.00000   0.44129    0.00000  90.00000   0.00050    76   77   78      4
    78  -3.00427   6.61940  20.00000   0.44129    0.00000  90.00000   0.00050    77   78   79      4
    79  -3.00427   7.06070  20.00000   0.44129    0.00000  90.00000   0.00050    78   79   80      4
    80  -3.00427   7.50199  20.00000   0.44129    0.00000  90.00000   0.00050    79   80   88      4
    81  -0.37103  -7.72264  20.00000   0.40511    0.00000 180.00000   0.00050     0   81   82      5
    82  -0.77615  -7.72264  20.00000   0.40511    0.00000 180.00000   0.00050    81   82   83      5
    83  -1.18126  -7.72264  20.00000   0.40511    0.00000 180.00000   0.00050    82   83   84      5
    84  -1.58637  -7.72264  20.00000   0.40511    0.00000 180.00000   0.00050    83   84   85      5
    85  -1.99148  -7.72264  20.00000   0.40511    0.00000 180.00000   0.00050    84   85   86      5
    86  -2.39660  -7.72264  20.00000   0.40511    0.00000 180.00000   0.00050    85   86   87      5
    87  -2.80171  -7.72264  20.00000   0.40511    0.00000 180.00000   0.00050    86   87   46      5
    88  -2.80171   7.72264  20.00000   0.40511    0.00000   0.00000   0.00050    80   88   89      6
    89  -2.39660   7.72264  20.00000   0.40511    0.00000   0.00000   0.00050    88   89   90      6
    90  -1.99148   7.72264  20.00000   0.40511    0.00000   0.00000   0.00050    89   90   91      6
    91  -1.58637   7.72264  20.00000   0.40511    0.00000   0.00000   0.00050    90   91   92      6
    92  -1.18126   7.72264  20.00000   0.40511    0.00000   0.00000   0.00050    91   92   93      6
    93  -0.77615   7.72264  20.00000   0.40511    0.00000   0.00000   0.00050    92   93   94      6
    94  -0.37103   7.72264  20.00000   0.40511    0.00000   0.00000   0.00050    93   94    0      6






 ***** DATA CARD NO.  1   FR   0     1     0     0  7.10000E+00  0.00000E+00  0.00000E+00  0.00000E+00  0.00000E+00  0.00000E+00
 ***** DATA CARD NO.  2   GN   2     0     0     0  1.30000E+01  5.00000E-03  0.00000E+00  0.00000E+00  0.00000E+00  0.00000E+00
 ***** DATA CARD NO.  3   EX   0     1    18     1  0.00000E+00  0.00000E+00  0.00000E+00  0.00000E+00  0.00000E+00  0.00000E+00
 ***** DATA CARD NO.  4   RP   0    19    73  1003 -9.00000E+01  0.00000E+00  5.00000E+00  5.00000E+00  0.00000E+00  0.00000E+00




                                 - - - - - - FREQUENCY - - - - - -

                                    FREQUENCY= 7.1000E+00 MHZ
                                    WAVELENGTH= 4.2225E+01 METERS




                    APPROXIMATE INTEGRATION EMPLOYED FOR SEGMENTS MORE THAN   1.000 WAVELENGTHS APART



                               - - - STRUCTURE IMPEDANCE LOADING - - -

                                   THIS STRUCTURE IS NOT LOADED



                                  - - - ANTENNA ENVIRONMENT - - -

                                        FINITE GROUND.  SOMMERFELD SOLUTION
                                        RELATIVE DIELECTRIC CONST.= 13.000
                                        CONDUCTIVITY= 5.000E-03 MHOS/METER
                                        COMPLEX DIELECTRIC CONSTANT= 1.30000E+01-1.26592E+01



                                - - - MATRIX TIMING - - -

                        FILL=    0.031 SEC.,  FACTOR=    0.000 SEC.



                                          - - - ANTENNA INPUT PARAMETERS - - -

   TAG   SEG.    VOLTAGE (VOLTS)         CURRENT (AMPS)         IMPEDANCE (OHMS)        ADMITTANCE (MHOS)      POWER
   NO.   NO.    REAL        IMAG.       REAL        IMAG.       REAL        IMAG.       REAL        IMAG.     (WATTS)
     1    18 1.00000E+00 0.00000E+00 1.67961E-02-1.84245E-03 5.88298E+01 6.45334E+00 1.67961E-02-1.84245E-03 8.39804E-03



                             - - - CURRENTS AND LOCATION - - -

                                 DISTANCES IN WAVELENGTHS


  SEG.  TAG    COORD. OF SEG. CENTER     SEG.            - - - CURRENT (AMPS) - - -
  NO.   NO.     X        Y        Z      LENGTH     REAL        IMAG.       MAG.        PHASE
     1    1   0.0606  -0.1777   0.4736  0.01045   6.9838E-03 -1.1481E-03  7.0776E-03   -9.336
     2    1   0.0606  -0.1672   0.4736  0.01045   7.9918E-03 -1.2737E-03  8.0927E-03   -9.056
     3    1   0.0606  -0.1568   0.4736  0.01045   8.9663E-03 -1.3929E-03  9.0739E-03   -8.830
     4    1   0.0606  -0.1463   0.4736  0.01045   9.9016E-03 -1.5042E-03  1.0015E-02   -8.638
     5    1   0.0606  -0.1359   0.4736  0.01045   1.0793E-02 -1.6064E-03  1.0911E-02   -8.466
     6    1   0.0606  -0.1254   0.4736  0.01045   1.1634E-02 -1.6987E-03  1.1758E-02   -8.307
     7    1   0.0606  -0.1150   0.4736  0.01045   1.2423E-02 -1.7802E-03  1.2550E-02   -8.155
     8    1   0.0606  -0.1045   0.4736  0.01045   1.3155E-02 -1.8503E-03  1.3285E-02   -8.006
     9    1   0.0606  -0.0941   0.4736  0.01045   1.3827E-02 -1.9084E-03  1.3958E-02   -7.858
    10    1   0.0606  -0.0836   0.4736  0.01045   1.4436E-02 -1.9542E-03  1.4568E-02   -7.709
    11    1   0.0606  -0.0732   0.4736  0.01045   1.4980E-02 -1.9873E-03  1.5111E-02   -7.557
    12    1   0.0606  -0.0627   0.4736  0.01045   1.5456E-02 -2.0074E-03  1.5586E-02   -7.400
    13    1   0.0606  -0.0523   0.4736  0.01045   1.5862E-02 -2.0141E-03  1.5989E-02   -7.237
    14    1   0.0606  -0.0418   0.4736  0.01045   1.6196E-02 -2.0071E-03  1.6320E-02   -7.064
    15    1   0.0606  -0.0314   0.4736  0.01045   1.6458E-02 -1.9859E-03  1.6577E-02   -6.881
    16    1   0.0606  -0.0209   0.4736  0.01045   1.6645E-02 -1.9499E-03  1.6759E-02   -6.681
    17    1   0.0606  -0.0105   0.4736  0.01045   1.6758E-02 -1.8966E-03  1.6865E-02   -6.457
    18    1   0.0606   0.0000   0.4736  0.01045   1.6796E-02 -1.8424E-03  1.6897E-02   -6.260
    19    1   0.0606   0.0105   0.4736  0.01045   1.6758E-02 -1.8966E-03  1.6865E-02   -6.457
    20    1   0.0606   0.0209   0.4736  0.01045   1.6645E-02 -1.9499E-03  1.6759E-02   -6.681
    21    1   0.0606   0.0314   0.4736  0.01045   1.6458E-02 -1.9859E-03  1.6577E-02   -6.881
    22    1   0.0606   0.0418   0.4736  0.01045   1.6196E-02 -2.0071E-03  1.6320E-02   -7.064
    23    1   0.0606   0.0523   0.4736  0.01045   1.5862E-02 -2.0141E-03  1.5989E-02   -7.237
    24    1   0.0606   0.0627   0.4736  0.01045   1.5456E-02 -2.0074E-03  1.5586E-02   -7.400
    25    1   0.0606   0.0732   0.4736  0.01045   1.4980E-02 -1.9873E-03  1.5111E-02   -7.557
    26    1   0.0606   0.0836   0.4736  0.01045   1.4436E-02 -1.9542E-03  1.4568E-02   -7.709
    27    1   0.0606   0.0941   0.4736  0.01045   1.3827E-02 -1.9084E-03  1.3958E-02   -7.858
    28    1   0.0606   0.1045   0.4736  0.01045   1.3155E-02 -1.8503E-03  1.3285E-02   -8.006
    29    1   0.0606   0.1150   0.4736  0.01045   1.2423E-02 -1.7802E-03  1.2550E-02   -8.155
    30    1   0.0606   0.1254   0.4736  0.01045   1.1634E-02 -1.6987E-03  1.1758E-02   -8.307
    31    1   0.0606   0.1359   0.4736  0.01045   1.0793E-02 -1.6064E-03  1.0911E-02   -8.466
    32    1   0.0606   0.1463   0.4736  0.01045   9.9016E-03 -1.5042E-03  1.0015E-02   -8.638
    33    1   0.0606   0.1568   0.4736  0.01045   8.9663E-03 -1.3929E-03  9.0739E-03   -8.830
    34    1   0.0606   0.1672   0.4736  0.01045   7.9918E-03 -1.2737E-03  8.0927E-03   -9.056
    35    1   0.0606   0.1777   0.4736  0.01045   6.9838E-03 -1.1481E-03  7.0776E-03   -9.336
    36    2   0.0096  -0.1829   0.4736  0.01132   7.9949E-04 -1.7616E-04  8.1867E-04  -12.426
    37    2   0.0210  -0.1829   0.4736  0.01132   2.2040E-03 -4.4571E-04  2.2486E-03  -11.433
    38    2   0.0323  -0.1829   0.4736  0.01132   3.4974E-03 -6.6216E-04  3.5595E-03  -10.721
    39    2   0.0436  -0.1829   0.4736  0.01132   4.7267E-03 -8.4791E-04  4.8021E-03  -10.170
    40    2   0.0549  -0.1829   0.4736  0.01132   5.9015E-03 -1.0101E-03  5.9874E-03   -9.713
    41    3   0.0549   0.1829   0.4736  0.01132   5.9015E-03 -1.0101E-03  5.9874E-03   -9.713
    42    3   0.0436   0.1829   0.4736  0.01132   4.7267E-03 -8.4791E-04  4.8021E-03  -10.170
    43    3   0.0323   0.1829   0.4736  0.01132   3.4974E-03 -6.6216E-04  3.5595E-03  -10.721
    44    3   0.0210   0.1829   0.4736  0.01132   2.2040E-03 -4.4571E-04  2.2486E-03  -11.433
    45    3   0.0096   0.1829   0.4736  0.01132   7.9949E-04 -1.7616E-04  8.1867E-04  -12.426
    46    4  -0.0711  -0.1777   0.4736  0.01045  -5.0463E-03  6.8401E-03  8.5001E-03  126.418
    47    4  -0.0711  -0.1672   0.4736  0.01045  -5.6275E-03  7.6807E-03  9.5216E-03  126.230
    48    4  -0.0711  -0.1568   0.4736  0.01045  -6.1911E-03  8.4922E-03  1.0509E-02  126.093
    49    4  -0.0711  -0.1463   0.4736  0.01045  -6.7333E-03  9.2705E-03  1.1458E-02  125.991
    50    4  -0.0711  -0.1359   0.4736  0.01045  -7.2508E-03  1.0011E-02  1.2361E-02  125.914
    51    4  -0.0711  -0.1254   0.4736  0.01045  -7.7408E-03  1.0711E-02  1.3216E-02  125.854
    52    4  -0.0711  -0.1150   0.4736  0.01045  -8.2006E-03  1.1367E-02  1.4017E-02  125.807
    53    4  -0.0711  -0.1045   0.4736  0.01045  -8.6279E-03  1.1976E-02  1.4760E-02  125.770
    54    4  -0.0711  -0.0941   0.4736  0.01045  -9.0206E-03  1.2535E-02  1.5443E-02  125.740
    55    4  -0.0711  -0.0836   0.4736  0.01045  -9.3769E-03  1.3041E-02  1.6062E-02  125.717
    56    4  -0.0711  -0.0732   0.4736  0.01045  -9.6950E-03  1.3493E-02  1.6615E-02  125.697
    57    4  -0.0711  -0.0627   0.4736  0.01045  -9.9737E-03  1.3889E-02  1.7099E-02  125.682
    58    4  -0.0711  -0.0523   0.4736  0.01045  -1.0212E-02  1.4226E-02  1.7512E-02  125.670
    59    4  -0.0711  -0.0418   0.4736  0.01045  -1.0408E-02  1.4505E-02  1.7852E-02  125.661
    60    4  -0.0711  -0.0314   0.4736  0.01045  -1.0561E-02  1.4722E-02  1.8118E-02  125.654
    61    4  -0.0711  -0.0209   0.4736  0.01045  -1.0671E-02  1.4878E-02  1.8309E-02  125.649
    62    4  -0.0711  -0.0105   0.4736  0.01045  -1.0737E-02  1.4972E-02  1.8424E-02  125.647
    63    4  -0.0711   0.0000   0.4736  0.01045  -1.0759E-02  1.5003E-02  1.8462E-02  125.646
    64    4  -0.0711   0.0105   0.4736  0.01045  -1.0737E-02  1.4972E-02  1.8424E-02  125.647
    65    4  -0.0711   0.0209   0.4736  0.01045  -1.0671E-02  1.4878E-02  1.8309E-02  125.649
    66    4  -0.0711   0.0314   0.4736  0.01045  -1.0561E-02  1.4722E-02  1.8118E-02  125.654
    67    4  -0.0711   0.0418   0.4736  0.01045  -1.0408E-02  1.4505E-02  1.7852E-02  125.661
    68    4  -0.0711   0.0523   0.4736  0.01045  -1.0212E-02  1.4226E-02  1.7512E-02  125.670
    69    4  -0.0711   0.0627   0.4736  0.01045  -9.9737E-03  1.3889E-02  1.7099E-02  125.682
    70    4  -0.0711   0.0732   0.4736  0.01045  -9.6950E-03  1.3493E-02  1.6615E-02  125.697
    71    4  -0.0711   0.0836   0.4736  0.01045  -9.3769E-03  1.3041E-02  1.6062E-02  125.717
    72    4  -0.0711   0.0941   0.4736  0.01045  -9.0206E-03  1.2535E-02  1.5443E-02  125.740
    73    4  -0.0711   0.1045   0.4736  0.01045  -8.6279E-03  1.1976E-02  1.4760E-02  125.770
    74    4  -0.0711   0.1150   0.4736  0.01045  -8.2006E-03  1.1367E-02  1.4017E-02  125.807
    75    4  -0.0711   0.1254   0.4736  0.01045  -7.7408E-03  1.0711E-02  1.3216E-02  125.854
    76    4  -0.0711   0.1359   0.4736  0.01045  -7.2508E-03  1.0011E-02  1.2361E-02  125.914
    77    4  -0.0711   0.1463   0.4736  0.01045  -6.7333E-03  9.2705E-03  1.1458E-02  125.991
    78    4  -0.0711   0.1568   0.4736  0.01045  -6.1911E-03  8.4922E-03  1.0509E-02  126.093
    79    4  -0.0711   0.1672   0.4736  0.01045  -5.6275E-03  7.6807E-03  9.5216E-03  126.230
    80    4  -0.0711   0.1777   0.4736  0.01045  -5.0463E-03  6.8401E-03  8.5001E-03  126.418
    81    5  -0.0088  -0.1829   0.4736  0.00959  -4.6843E-04  5.6993E-04  7.3773E-04  129.417
    82    5  -0.0184  -0.1829   0.4736  0.00959  -1.2669E-03  1.5861E-03  2.0299E-03  128.617
    83    5  -0.0280  -0.1829   0.4736  0.00959  -1.9840E-03  2.5355E-03  3.2195E-03  128.043
    84    5  -0.0376  -0.1829   0.4736  0.00959  -2.6557E-03  3.4484E-03  4.3525E-03  127.601
    85    5  -0.0472  -0.1829   0.4736  0.00959  -3.2921E-03  4.3310E-03  5.4402E-03  127.240
    86    5  -0.0568  -0.1829   0.4736  0.00959  -3.8975E-03  5.1847E-03  6.4863E-03  126.933
    87    5  -0.0664  -0.1829   0.4736  0.00959  -4.4733E-03  6.0094E-03  7.4916E-03  126.664
    88    6  -0.0664   0.1829   0.4736  0.00959  -4.4733E-03  6.0094E-03  7.4916E-03  126.664
    89    6  -0.0568   0.1829   0.4736  0.00959  -3.8975E-03  5.1847E-03  6.4863E-03  126.933
    90    6  -0.0472   0.1829   0.4736  0.00959  -3.2921E-03  4.3310E-03  5.4402E-03  127.240
    91    6  -0.0376   0.1829   0.4736  0.00959  -2.6557E-03  3.4484E-03  4.3525E-03  127.601
    92    6  -0.0280   0.1829   0.4736  0.00959  -1.9840E-03  2.5355E-03  3.2195E-03  128.043
    93    6  -0.0184   0.1829   0.4736  0.00959  -1.2669E-03  1.5861E-03  2.0299E-03  128.617
    94    6  -0.0088   0.1829   0.4736  0.00959  -4.6843E-04  5.6993E-04  7.3773E-04  129.417



                                        - - - POWER BUDGET - - -

                                           INPUT POWER   = 8.3980E-03 WATTS
                                           RADIATED POWER= 8.3980E-03 WATTS
                                           STRUCTURE LOSS= 0.0000E+00 WATTS
                                           NETWORK LOSS  = 0.0000E+00 WATTS
                                           EFFICIENCY    = 100.00 PERCENT



                                                - - - RADIATION PATTERNS - - -

  - - ANGLES - -           - POWER GAINS -       - - - POLARIZATION - - -    - - - E(THETA) - - -    - - - E(PHI) - - -
  THETA     PHI        VERT.   HOR.    TOTAL      AXIAL     TILT   SENSE     MAGNITUDE    PHASE      MAGNITUDE    PHASE 
 DEGREES  DEGREES       DB      DB      DB        RATIO     DEG.              VOLTS/M    DEGREES      VOLTS/M    DEGREES
  -90.00     0.00    -999.99 -999.99 -999.99    0.00000     0.00            5.28935E-21  -121.27    3.25719E-12   -25.34
  -85.00     0.00    -999.99  -22.42  -22.42    0.00000    90.00  LINEAR    6.67775E-11    69.62    5.37287E-02   152.61
  -80.00     0.00    -196.13  -16.95  -16.95    0.00000    90.00  LINEAR    1.10817E-10    86.83    1.00792E-01   147.35
  -75.00     0.00    -192.98  -14.09  -14.09    0.00000    90.00  LINEAR    1.59179E-10   105.95    1.40068E-01   138.96
  -70.00     0.00    -190.06  -12.17  -12.17    0.00000    90.00  LINEAR    2.22826E-10   121.44    1.74878E-01   128.09
  -65.00     0.00    -187.60  -10.55  -10.55    0.00000    90.00  LINEAR    2.95808E-10   132.23    2.10567E-01   116.30
  -60.00     0.00    -185.76   -9.07   -9.07    0.00000    90.00  LINEAR    3.65523E-10   139.69    2.49815E-01   105.52
  -55.00     0.00    -184.55   -7.77   -7.77    0.00000    90.00  LINEAR    4.20362E-10   145.19    2.90071E-01    97.01
  -50.00     0.00    -183.90   -6.78   -6.78    0.00000    90.00  LINEAR    4.52692E-10   149.66    3.25263E-01    91.06
  -45.00     0.00    -183.77   -6.16   -6.16    0.00000    90.00  LINEAR    4.59650E-10   153.72    3.49160E-01    87.51
  -40.00     0.00    -184.10   -5.95   -5.95    0.00000    90.00  LINEAR    4.42825E-10   157.84    3.57792E-01    86.12
  -35.00     0.00    -184.82   -6.13   -6.13    0.00000    90.00  LINEAR    4.07294E-10   162.47    3.50534E-01    86.82
  -30.00     0.00    -185.89   -6.64   -6.64    0.00000    90.00  LINEAR    3.60374E-10   168.06    3.30246E-01    89.76
  -25.00     0.00    -187.18   -7.39   -7.39    0.00000    90.00  LINEAR    3.10329E-10   175.06    3.02888E-01    95.24
  -20.00     0.00    -188.55   -8.18   -8.18    0.00000    90.00  LINEAR    2.65061E-10  -176.28    2.76624E-01   103.40
  -15.00     0.00    -189.77   -8.73   -8.73    0.00000    90.00  LINEAR    2.30531E-10  -166.42    2.59805E-01   113.50
  -10.00     0.00    -190.62   -8.81   -8.81    0.00000    90.00  LINEAR    2.08964E-10  -156.94    2.57357E-01   123.37
   -5.00     0.00    -191.07   -8.45   -8.45    0.00000    90.00  LINEAR    1.98392E-10  -150.15    2.68289E-01   130.18
    0.00     0.00    -191.21   -7.82   -7.82    0.00000    90.00  LINEAR    1.95130E-10  -147.84    2.88416E-01   132.06
  -90.00     5.00    -999.99 -999.99 -999.99    0.00000     0.00            1.92719E-13   176.84    3.23513E-12   -26.16
  -85.00     5.00     -49.22  -22.47  -22.46    0.02679   -87.86  LEFT      2.45531E-03     7.47    5.33935E-02   151.78
  -80.00     5.00     -44.59  -16.99  -16.99    0.03515   -88.71  LEFT      4.18546E-03    23.96    1.00294E-01   146.52
  -75.00     5.00     -41.06  -14.12  -14.11    0.04468   -89.72  LEFT      6.27796E-03    41.95    1.39666E-01   138.17
  -70.00     5.00     -37.64  -12.17  -12.16    0.05045    89.02  LEFT      9.30977E-03    56.03    1.74783E-01   127.38
  -65.00     5.00     -34.58  -10.54  -10.53    0.04841    87.71  LEFT      1.32481E-02    65.25    2.10806E-01   115.75
  -60.00     5.00     -32.06   -9.05   -9.03    0.03949    86.64  LEFT      1.77075E-02    71.08    2.50221E-01   105.13
  -55.00     5.00     -30.11   -7.76   -7.73    0.02817    85.94  LEFT      2.21667E-02    74.98    2.90412E-01    96.75
  -50.00     5.00     -28.69   -6.77   -6.74    0.01788    85.53  LEFT      2.60840E-02    77.94    3.25375E-01    90.90
  -45.00     5.00     -27.78   -6.16   -6.13    0.00976    85.28  LEFT      2.89890E-02    80.61    3.48977E-01    87.41
  -40.00     5.00     -27.31   -5.96   -5.93    0.00380    85.12  LEFT      3.05686E-02    83.49    3.57336E-01    86.05
  -35.00     5.00     -27.27   -6.14   -6.11    0.00035    84.98  RIGHT     3.07346E-02    87.01    3.49874E-01    86.78
  -30.00     5.00     -27.58   -6.66   -6.63    0.00294    84.86  RIGHT     2.96598E-02    91.62    3.29466E-01    89.74
  -25.00     5.00     -28.15   -7.42   -7.38    0.00405    84.75  RIGHT     2.77751E-02    97.77    3.02058E-01    95.23
  -20.00     5.00     -28.82   -8.21   -8.17    0.00370    84.68  RIGHT     2.57113E-02   105.68    2.75784E-01   103.39
  -15.00     5.00     -29.36   -8.76   -8.72    0.00227    84.67  RIGHT     2.41463E-02   114.90    2.58953E-01   113.50
  -10.00     5.00     -29.58   -8.84   -8.80    0.00074    84.76  RIGHT     2.35431E-02   123.83    2.56462E-01   123.36
   -5.00     5.00     -29.43   -8.48   -8.45    0.00004    84.88  LEFT      2.39483E-02   130.15    2.67309E-01   130.17
    0.00     5.00     -29.01   -7.85   -7.82    0.00000    85.00  LINEAR    2.51371E-02   132.06    2.87319E-01   132.06
  -90.00    10.00    -999.99 -999.99 -999.99    0.00000     0.00            3.92868E-13   176.06    3.17480E-12   -28.63
  -85.00    10.00     -43.03  -22.62  -22.58    0.05761   -85.65  LEFT      5.00399E-03     6.71    5.24669E-02   149.30
  -80.00    10.00     -38.41  -17.11  -17.08    0.07384   -87.46  LEFT      8.52374E-03    23.24    9.89352E-02   144.07
  -75.00    10.00     -34.90  -14.18  -14.15    0.09184   -89.58  LEFT      1.27700E-02    41.30    1.38608E-01   135.83
  -70.00    10.00     -31.49  -12.18  -12.13    0.10153    87.84  LEFT      1.89078E-02    55.47    1.74604E-01   125.33
  -65.00    10.00     -28.44  -10.51  -10.44    0.09569    85.23  LEFT      2.68583E-02    64.77    2.11552E-01   114.14
  -60.00    10.00     -25.94   -9.01   -8.93    0.07719    83.17  LEFT      3.58300E-02    70.69    2.51394E-01   104.00
  -55.00    10.00     -24.00   -7.73   -7.63    0.05481    81.83  LEFT      4.47655E-02    74.66    2.91355E-01    96.01
  -50.00    10.00     -22.60   -6.77   -6.65    0.03475    81.04  LEFT      5.25769E-02    77.69    3.25619E-01    90.43
  -45.00    10.00     -21.70   -6.18   -6.06    0.01899    80.55  LEFT      5.83290E-02    80.42    3.48349E-01    87.11
  -40.00    10.00     -21.26   -5.99   -5.87    0.00738    80.22  LEFT      6.14077E-02    83.34    3.55906E-01    85.86
  -35.00    10.00     -21.22   -6.19   -6.06    0.00071    79.95  RIGHT     6.16507E-02    86.90    3.47850E-01    86.66
  -30.00    10.00     -21.54   -6.73   -6.59    0.00577    79.71  RIGHT     5.94170E-02    91.54    3.27098E-01    89.66
  -25.00    10.00     -22.12   -7.49   -7.34    0.00793    79.50  RIGHT     5.55769E-02    97.71    2.99553E-01    95.17
  -20.00    10.00     -22.80   -8.29   -8.14    0.00724    79.36  RIGHT     5.13941E-02   105.64    2.73255E-01   103.35
  -15.00    10.00     -23.36   -8.84   -8.69    0.00444    79.35  RIGHT     4.82210E-02   114.88    2.56396E-01   113.48
  -10.00    10.00     -23.58   -8.93   -8.78    0.00144    79.51  RIGHT     4.69768E-02   123.81    2.53777E-01   123.35
   -5.00    10.00     -23.44   -8.58   -8.44    0.00009    79.76  LEFT      4.77486E-02   130.14    2.64375E-01   130.17
    0.00    10.00     -23.03   -7.95   -7.82    0.00000    80.00  LINEAR    5.00830E-02   132.06    2.84035E-01   132.06
  -90.00    15.00    -999.99 -999.99 -999.99    0.00000     0.00            6.07587E-13   174.86    3.08968E-12   -32.71
  -85.00    15.00     -39.25  -22.84  -22.74    0.09646   -83.36  LEFT      7.73575E-03     5.53    5.11666E-02   145.24
  -80.00    15.00     -34.63  -17.28  -17.20    0.11926   -86.31  LEFT      1.31613E-02    22.13    9.70829E-02   140.08
  -75.00    15.00     -31.14  -14.27  -14.18    0.14328   -89.74  LEFT      1.96806E-02    40.29    1.37284E-01   132.09
  -70.00    15.00     -27.75  -12.18  -12.06    0.15320    86.27  LEFT      2.90686E-02    54.58    1.74604E-01   122.11
  -65.00    15.00     -24.73  -10.46  -10.30    0.14047    82.42  LEFT      4.11742E-02    64.02    2.12847E-01   111.65
  -60.00    15.00     -22.25   -8.95   -8.75    0.11143    79.50  LEFT      5.47600E-02    70.06    2.53184E-01   102.25
  -55.00    15.00     -20.34   -7.69   -7.46    0.07861    77.62  LEFT      6.82041E-02    74.16    2.92648E-01    94.86
  -50.00    15.00     -18.97   -6.76   -6.51    0.04980    76.50  LEFT      7.98637E-02    77.29    3.25729E-01    89.69
  -45.00    15.00     -18.10   -6.21   -5.94    0.02722    75.80  LEFT      8.83490E-02    80.10    3.47042E-01    86.63
  -40.00    15.00     -17.67   -6.06   -5.77    0.01056    75.30  LEFT      9.27687E-02    83.09    3.53319E-01    85.56
  -35.00    15.00     -17.66   -6.28   -5.98    0.00109    74.90  RIGHT     9.29153E-02    86.71    3.44333E-01    86.46
  -30.00    15.00     -18.00   -6.83   -6.51    0.00837    74.55  RIGHT     8.93585E-02    91.40    3.23055E-01    89.53
  -25.00    15.00     -18.59   -7.61   -7.28    0.01148    74.24  RIGHT     8.34245E-02    97.61    2.95322E-01    95.09
  -20.00    15.00     -19.29   -8.42   -8.08    0.01046    74.03  RIGHT     7.70148E-02   105.57    2.69011E-01   103.30
  -15.00    15.00     -19.86   -8.99   -8.65    0.00639    74.03  RIGHT     7.21495E-02   114.83    2.52122E-01   113.44
  -10.00    15.00     -20.09   -9.09   -8.75    0.00204    74.28  RIGHT     7.01904E-02   123.79    2.49306E-01   123.34
   -5.00    15.00     -19.96   -8.74   -8.42    0.00016    74.65  LEFT      7.12526E-02   130.13    2.59501E-01   130.16
    0.00    15.00     -19.56   -8.12   -7.82    0.00000    75.00  LINEAR    7.46477E-02   132.06    2.78589E-01   132.06
  -90.00    20.00    -999.99 -999.99 -999.99    0.00000     0.00            8.43389E-13   173.34    2.99848E-12   -38.22
  -85.00    20.00     -36.41  -23.08  -22.88    0.14686   -81.03  LEFT      1.07323E-02     4.04    4.97914E-02   139.78
  -80.00    20.00     -31.80  -17.45  -17.29    0.17372   -85.40  LEFT      1.82311E-02    20.72    9.52212E-02   134.79
  -75.00    20.00     -28.33  -14.34  -14.17    0.19961    89.63  LEFT      2.71946E-02    39.01    1.36167E-01   127.23
  -70.00    20.00     -24.97  -12.16  -11.94    0.20448    84.14  LEFT      4.00386E-02    53.45    1.75035E-01   118.00
  -65.00    20.00     -21.98  -10.39  -10.10    0.18120    79.18  LEFT      5.65026E-02    63.05    2.14629E-01   108.50
  -60.00    20.00     -19.54   -8.88   -8.52    0.14095    75.57  LEFT      7.48461E-02    69.26    2.55275E-01   100.05
  -55.00    20.00     -17.67   -7.66   -7.24    0.09870    73.29  LEFT      9.28423E-02    73.50    2.93854E-01    93.39
  -50.00    20.00     -16.33   -6.78   -6.32    0.06247    71.89  LEFT      1.08281E-01    76.76    3.25260E-01    88.74
  -45.00    20.00     -15.48   -6.27   -5.78    0.03419    70.99  LEFT      1.19335E-01    79.68    3.44672E-01    86.02
  -40.00    20.00     -15.09   -6.16   -5.63    0.01325    70.34  LEFT      1.24867E-01    82.77    3.49278E-01    85.16
  -35.00    20.00     -15.11   -6.41   -5.86    0.00144    69.82  RIGHT     1.24667E-01    86.46    3.39111E-01    86.20
  -30.00    20.00     -15.47   -6.99   -6.42    0.01064    69.36  RIGHT     1.19550E-01    91.21    3.17202E-01    89.36
  -25.00    20.00     -16.09   -7.79   -7.19    0.01453    68.97  RIGHT     1.11323E-01    97.47    2.89282E-01    94.98
  -20.00    20.00     -16.80   -8.62   -8.01    0.01321    68.71  RIGHT     1.02531E-01   105.47    2.63010E-01   103.23
  -15.00    20.00     -17.39   -9.20   -8.58    0.00803    68.73  RIGHT     9.58522E-02   114.76    2.46116E-01   113.40
  -10.00    20.00     -17.64   -9.31   -8.71    0.00252    69.05  RIGHT     9.30709E-02   123.75    2.43053E-01   123.31
   -5.00    20.00     -17.53   -8.97   -8.40    0.00025    69.53  LEFT      9.43129E-02   130.11    2.52708E-01   130.15
    0.00    20.00     -17.14   -8.36   -7.82    0.00000    70.00  LINEAR    9.86442E-02   132.06    2.71023E-01   132.06
  -90.00    25.00    -999.99 -999.99 -999.99    0.00000     0.00            1.10576E-12   171.62    2.91930E-12   -44.83
  -85.00    25.00     -34.06  -23.28  -22.93    0.21068   -78.77  LEFT      1.40623E-02     2.36    4.86233E-02   133.26
  -80.00    25.00     -29.47  -17.58  -17.31    0.23796   -84.87  LEFT      2.38446E-02    19.13    9.37699E-02   128.59
  -75.00    25.00     -26.02  -14.38  -14.09    0.25998    88.35  LEFT      3.54659E-02    37.55    1.35587E-01   121.65
  -70.00    25.00     -22.70  -12.11  -11.75    0.25366    81.34  LEFT      5.20219E-02    52.16    1.75940E-01   113.38
  -65.00    25.00     -19.74  -10.31   -9.84    0.21659    75.45  LEFT      7.30955E-02    61.93    2.16601E-01   105.00
  -60.00    25.00     -17.34   -8.82   -8.25    0.16508    71.37  LEFT      9.63723E-02    68.31    2.57126E-01    97.59
  -55.00    25.00     -15.51   -7.64   -6.99    0.11475    68.79  LEFT      1.18970E-01    72.72    2.94334E-01    91.74
  -50.00    25.00     -14.22   -6.82   -6.09    0.07257    67.18  LEFT      1.38099E-01    76.12    3.23599E-01    87.66
  -45.00    25.00     -13.41   -6.37   -5.59    0.03978    66.11  LEFT      1.51509E-01    79.18    3.40721E-01    85.32
  -40.00    25.00     -13.05   -6.30   -5.47    0.01544    65.32  LEFT      1.57865E-01    82.37    3.43385E-01    84.70
  -35.00    25.00     -13.10   -6.60   -5.72    0.00169    64.68  RIGHT     1.57002E-01    86.15    3.31904E-01    85.90
  -30.00    25.00     -13.50   -7.21   -6.29    0.01241    64.14  RIGHT     1.50028E-01    90.98    3.09356E-01    89.17
  -25.00    25.00     -14.14   -8.04   -7.08    0.01694    63.68  RIGHT     1.39257E-01    97.30    2.81328E-01    94.86
  -20.00    25.00     -14.88   -8.88   -7.91    0.01536    63.39  RIGHT     1.27888E-01   105.35    2.55197E-01   103.15
  -15.00    25.00     -15.49   -9.48   -8.51    0.00928    63.43  RIGHT     1.19242E-01   114.68    2.38361E-01   113.35
  -10.00    25.00     -15.77   -9.60   -8.66    0.00284    63.83  RIGHT     1.15502E-01   123.70    2.35026E-01   123.29
   -5.00    25.00     -15.67   -9.27   -8.38    0.00037    64.43  LEFT      1.16782E-01   130.09    2.44030E-01   130.14
    0.00    25.00     -15.30   -8.67   -7.82    0.00000    65.00  LINEAR    1.21890E-01   132.06    2.61394E-01   132.06
  -90.00    30.00    -999.99 -999.99 -999.99    0.00000     0.00            1.39878E-12   169.84    2.86216E-12   -51.99
  -85.00    30.00     -32.02  -23.43  -22.87    0.28743   -76.65  LEFT      1.77767E-02     0.60    4.78090E-02   126.23
  -80.00    30.00     -27.45  -17.66  -17.23    0.31122   -84.85  LEFT      3.00840E-02    17.46    9.28832E-02   122.01
  -75.00    30.00     -24.03  -14.38  -13.93    0.32281    86.29  LEFT      4.46075E-02    36.01    1.35514E-01   115.86
  -70.00    30.00     -20.74  -12.06  -11.51    0.29922    77.82  LEFT      6.51672E-02    50.77    1.76982E-01   108.66
  -65.00    30.00     -17.83  -10.25   -9.55    0.24609    71.25  LEFT      9.11345E-02    60.73    2.18136E-01   101.45
  -60.00    30.00     -15.47   -8.79   -7.95    0.18389    66.88  LEFT      1.19541E-01    67.28    2.57935E-01    95.07
  -55.00    30.00     -13.69   -7.68   -6.70    0.12690    64.12  LEFT      1.46792E-01    71.86    2.93254E-01    90.04
  -50.00    30.00     -12.44   -6.92   -5.84    0.08022    62.34  LEFT      1.69499E-01    75.42    3.19982E-01    86.53
  -45.00    30.00     -11.68   -6.53   -5.37    0.04410    61.13  LEFT      1.85018E-01    78.61    3.34555E-01    84.57
  -40.00    30.00     -11.36   -6.52   -5.28    0.01725    60.22  LEFT      1.91861E-01    81.92    3.35160E-01    84.21
  -35.00    30.00     -11.45   -6.85   -5.56    0.00169    59.49  RIGHT     1.89966E-01    85.80    3.22374E-01    85.58
  -30.00    30.00     -11.88   -7.50   -6.15    0.01356    58.87  RIGHT     1.80789E-01    90.71    2.99298E-01    88.95
  -25.00    30.00     -12.56   -8.35   -6.95    0.01855    58.37  RIGHT     1.67185E-01    97.10    2.71329E-01    94.72
  -20.00    30.00     -13.33   -9.22   -7.79    0.01678    58.07  RIGHT     1.53012E-01   105.20    2.45505E-01   103.06
  -15.00    30.00     -13.96   -9.83   -8.41    0.01007    58.14  RIGHT     1.42222E-01   114.58    2.28833E-01   113.30
  -10.00    30.00     -14.26   -9.97   -8.59    0.00297    58.62  RIGHT     1.37364E-01   123.64    2.25237E-01   123.26
   -5.00    30.00     -14.19   -9.65   -8.34    0.00052    59.32  LEFT      1.38514E-01   130.06    2.33508E-01   130.13
    0.00    30.00     -13.84   -9.07   -7.82    0.00000    60.00  LINEAR    1.44208E-01   132.06    2.49776E-01   132.06
  -90.00    35.00    -999.99 -999.99 -999.99    0.00000     0.00            1.72479E-12   168.06    2.82430E-12   -59.03
  -85.00    35.00     -30.21  -23.53  -22.68    0.37483   -74.53  LEFT      2.19051E-02    -1.15    4.72695E-02   119.36
  -80.00    35.00     -25.66  -17.71  -17.07    0.39264   -85.35  LEFT      3.69967E-02    15.78    9.23158E-02   115.65
  -75.00    35.00     -22.26  -14.39  -13.73    0.38714    83.38  LEFT      5.46839E-02    34.45    1.35443E-01   110.34
  -70.00    35.00     -19.01  -12.04  -11.25    0.34071    73.56  LEFT      7.95577E-02    49.37    1.77385E-01   104.21
  -65.00    35.00     -16.14  -10.24   -9.25    0.27014    66.57  LEFT      1.10719E-01    59.49    2.18267E-01    98.10
  -60.00    35.00     -13.83   -8.83   -7.64    0.19804    62.07  LEFT      1.44459E-01    66.21    2.56663E-01    92.69
  -55.00    35.00     -12.09   -7.78   -6.41    0.13568    59.21  LEFT      1.76409E-01    70.95    2.89608E-01    88.40
  -50.00    35.00     -10.89   -7.09   -5.58    0.08573    57.33  LEFT      2.02567E-01    74.66    3.13525E-01    85.43
  -45.00    35.00     -10.18   -6.77   -5.14    0.04735    56.00  LEFT      2.19919E-01    77.99    3.25457E-01    83.84
  -40.00    35.00      -9.90   -6.81   -5.08    0.01884    55.01  LEFT      2.26876E-01    81.42    3.24059E-01    83.72
  -35.00    35.00     -10.03   -7.19   -5.37    0.00130    54.22  RIGHT     2.23547E-01    85.41    3.10141E-01    85.25
  -30.00    35.00     -10.50   -7.87   -5.98    0.01392    53.56  RIGHT     2.11787E-01    90.41    2.86783E-01    88.74
  -25.00    35.00     -11.22   -8.75   -6.80    0.01924    53.04  RIGHT     1.95034E-01    96.87    2.59144E-01    94.58
  -20.00    35.00     -12.02   -9.64   -7.66    0.01739    52.76  RIGHT     1.77812E-01   105.04    2.33866E-01   102.97
  -15.00    35.00     -12.69  -10.27   -8.30    0.01034    52.87  RIGHT     1.64684E-01   114.47    2.17514E-01   113.24
  -10.00    35.00     -13.02  -10.42   -8.52    0.00289    53.43  RIGHT     1.58531E-01   123.57    2.13703E-01   123.22
   -5.00    35.00     -12.97  -10.12   -8.31    0.00071    54.23  LEFT      1.59362E-01   130.03    2.21194E-01   130.11
    0.00    35.00     -12.65   -9.55   -7.82    0.00000    55.00  LINEAR    1.65429E-01   132.06    2.36257E-01   132.06
  -90.00    40.00    -999.99 -999.99 -999.99    0.00000     0.00            2.08431E-12   166.36    2.78574E-12   -65.32
  -85.00    40.00     -28.57  -23.64  -22.43    0.47057   -71.87  LEFT      2.64535E-02    -2.83    4.66863E-02   113.24
  -80.00    40.00     -24.04  -17.80  -16.87    0.48361   -86.27  LEFT      4.45922E-02    14.17    9.14262E-02   110.04
  -75.00    40.00     -20.67  -14.45  -13.52    0.45402    79.48  LEFT      6.57068E-02    32.94    1.34436E-01   105.53
  -70.00    40.00     -17.45  -12.11  -11.00    0.37891    68.47  LEFT      9.52066E-02    47.99    1.76004E-01   100.34
  -65.00    40.00     -14.62  -10.34   -8.96    0.28972    61.33  LEFT      1.31862E-01    58.26    2.15756E-01    95.18
  -60.00    40.00     -12.35   -8.99   -7.34    0.20840    56.87  LEFT      1.71133E-01    65.14    2.52085E-01    90.59
  -55.00    40.00     -10.67   -8.01   -6.13    0.14171    54.00  LEFT      2.07817E-01    70.03    2.82273E-01    86.95
  -50.00    40.00      -9.51   -7.38   -5.31    0.08954    52.07  LEFT      2.37284E-01    73.89    3.03262E-01    84.43
  -45.00    40.00      -8.85   -7.12   -4.89    0.04985    50.70  LEFT      2.56171E-01    77.35    3.12650E-01    83.17
  -40.00    40.00      -8.63   -7.21   -4.85    0.02045    49.66  LEFT      2.62850E-01    80.90    3.09502E-01    83.28
  -35.00    40.00      -8.80   -7.63   -5.16    0.00031    48.85  RIGHT     2.57663E-01    84.99    2.94800E-01    84.96
  -30.00    40.00      -9.31   -8.34   -5.79    0.01335    48.19  RIGHT     2.42929E-01    90.08    2.71550E-01    88.54
  -25.00    40.00     -10.07   -9.25   -6.63    0.01890    47.69  RIGHT     2.22698E-01    96.62    2.44621E-01    94.45
  -20.00    40.00     -10.91  -10.16   -7.51    0.01713    47.45  RIGHT     2.02175E-01   104.86    2.20207E-01   102.89
  -15.00    40.00     -11.61  -10.81   -8.18    0.01006    47.62  RIGHT     1.86507E-01   114.35    2.04385E-01   113.19
  -10.00    40.00     -11.97  -10.98   -8.44    0.00259    48.26  RIGHT     1.78874E-01   123.50    2.00449E-01   123.20
   -5.00    40.00     -11.95  -10.69   -8.27    0.00094    49.14  LEFT      1.79184E-01   129.99    2.07151E-01   130.10
    0.00    40.00     -11.66  -10.13   -7.82    0.00000    50.00  LINEAR    1.85390E-01   132.06    2.20940E-01   132.06
  -90.00    45.00    -999.99 -999.99 -999.99    0.00000     0.00            2.47599E-12   164.76    2.71848E-12   -70.36
  -85.00    45.00     -27.08  -23.85  -22.16    0.57166   -67.28  LEFT      3.14051E-02    -4.40    4.55725E-02   108.35
  -80.00    45.00     -22.56  -18.00  -16.70    0.59008   -87.34  LEFT      5.28424E-02    12.65    8.93082E-02   105.59
  -75.00    45.00     -19.22  -14.66  -13.35    0.52652    74.18  LEFT      7.76359E-02    31.52    1.31287E-01   101.72
  -70.00    45.00     -16.03  -12.34  -10.79    0.41486    62.32  LEFT      1.12057E-01    46.67    1.71475E-01    97.29
  -65.00    45.00     -13.24  -10.61   -8.72    0.30566    55.39  LEFT      1.54487E-01    57.07    2.09216E-01    92.87
  -60.00    45.00     -11.02   -9.31   -7.07    0.21564    51.16  LEFT      1.99468E-01    64.09    2.42888E-01    88.93
  -55.00    45.00      -9.38   -8.39   -5.85    0.14551    48.41  LEFT      2.40904E-01    69.12    2.70073E-01    85.79
  -50.00    45.00      -8.28   -7.83   -5.04    0.09207    46.52  LEFT      2.73521E-01    73.11    2.88199E-01    83.64
  -45.00    45.00      -7.66   -7.61   -4.63    0.05192    45.17  LEFT      2.93637E-01    76.69    2.95345E-01    82.64
  -40.00    45.00      -7.49   -7.75   -4.60    0.02233    44.15  LEFT      2.99639E-01    80.36    2.90899E-01    82.92
  -35.00    45.00      -7.71   -8.20   -4.94    0.00145    43.36  LEFT      2.92169E-01    84.56    2.75942E-01    84.72
  -30.00    45.00      -8.26   -8.95   -5.58    0.01173    42.75  RIGHT     2.74068E-01    89.74    2.53341E-01    88.39
  -25.00    45.00      -9.06   -9.88   -6.44    0.01746    42.31  RIGHT     2.50038E-01    96.36    2.27615E-01    94.35
  -20.00    45.00      -9.94  -10.81   -7.34    0.01596    42.14  RIGHT     2.25965E-01   104.66    2.04461E-01   102.83
  -15.00    45.00     -10.68  -11.47   -8.05    0.00922    42.39  RIGHT     2.07560E-01   114.21    1.89436E-01   113.15
  -10.00    45.00     -11.08  -11.65   -8.34    0.00206    43.10  RIGHT     1.98258E-01   123.41    1.85509E-01   123.18
   -5.00    45.00     -11.09  -11.38   -8.22    0.00120    44.06  LEFT      1.97838E-01   129.96    1.91454E-01   130.09
    0.00    45.00     -10.83  -10.83   -7.82    0.00000    45.00  LINEAR    2.03941E-01   132.06    2.03941E-01   132.06
  -90.00    50.00    -999.99 -999.99 -999.99    0.00000     0.00            2.89680E-12   163.31    2.58791E-12   -73.74
  -85.00    50.00     -25.72  -24.27  -21.93    0.66315   -57.56  LEFT      3.67217E-02    -5.85    4.33836E-02   105.08
  -80.00    50.00     -21.22  -18.43  -16.60    0.72525   -87.91  LEFT      6.16846E-02    11.26    8.49750E-02   102.62
  -75.00    50.00     -17.90  -15.10  -13.27    0.60723    66.23  LEFT      9.03827E-02    30.19    1.24722E-01    99.21
  -70.00    50.00     -14.74  -12.81  -10.66    0.44770    54.60  LEFT      1.29989E-01    45.44    1.62400E-01    95.30
  -65.00    50.00     -11.99  -11.12   -8.52    0.31756    48.51  LEFT      1.78437E-01    55.94    1.97252E-01    91.38
  -60.00    50.00      -9.81   -9.87   -6.83    0.21980    44.79  LEFT      2.29272E-01    63.08    2.27765E-01    87.87
  -55.00    50.00      -8.22   -9.00   -5.58    0.14736    42.32  LEFT      2.75454E-01    68.23    2.51850E-01    85.07
  -50.00    50.00      -7.16   -8.48   -4.76    0.09366    40.60  LEFT      3.11048E-01    72.34    2.67365E-01    83.17
  -45.00    50.00      -6.60   -8.30   -4.36    0.05387    39.37  LEFT      3.32084E-01    76.04    2.72770E-01    82.33
  -40.00    50.00      -6.47   -8.47   -4.34    0.02473    38.45  LEFT      3.37015E-01    79.82    2.67676E-01    82.73
  -35.00    50.00      -6.73   -8.95   -4.69    0.00414    37.76  LEFT      3.26851E-01    84.11    2.53170E-01    84.60
  -30.00    50.00      -7.33   -9.71   -5.35    0.00897    37.25  RIGHT     3.05007E-01    89.38    2.31904E-01    88.31
  -25.00    50.00      -8.17  -10.66   -6.23    0.01490    36.91  RIGHT     2.76875E-01    96.08    2.07986E-01    94.30
  -20.00    50.00      -9.10  -11.60   -7.16    0.01389    36.84  RIGHT     2.49023E-01   104.46    1.86569E-01   102.80
  -15.00    50.00      -9.87  -12.28   -7.90    0.00783    37.17  RIGHT     2.27695E-01   114.07    1.72665E-01   113.14
  -10.00    50.00     -10.31  -12.47   -8.25    0.00131    37.96  RIGHT     2.16544E-01   123.32    1.68924E-01   123.17
   -5.00    50.00     -10.36  -12.20   -8.18    0.00151    38.99  LEFT      2.15185E-01   129.91    1.74186E-01   130.09
    0.00    50.00     -10.13  -11.66   -7.82    0.00000    40.00  LINEAR    2.20940E-01   132.06    1.85390E-01   132.06
  -90.00    55.00    -999.99 -999.99 -999.99    0.00000     0.00            3.34228E-12   161.98    2.36480E-12   -74.95
  -85.00    55.00     -24.48  -25.06  -21.75    0.68202   -39.77  LEFT      4.23472E-02    -7.16    3.96296E-02   103.93
  -80.00    55.00     -19.99  -19.23  -16.58    0.91182   -80.99  LEFT      7.10268E-02     9.98    7.75424E-02   101.62
  -75.00    55.00     -16.69  -15.91  -13.28    0.68516    52.20  LEFT      1.03817E-01    28.97    1.13601E-01    98.42
  -70.00    55.00     -13.57  -13.64  -10.59    0.47096    44.61  LEFT      1.48822E-01    44.30    1.47525E-01    94.74
  -65.00    55.00     -10.85  -11.98   -8.37    0.32290    40.40  LEFT      2.03480E-01    54.89    1.78603E-01    91.04
  -60.00    55.00      -8.71  -10.76   -6.61    0.22006    37.60  LEFT      2.60269E-01    62.13    2.05532E-01    87.69
  -55.00    55.00      -7.16   -9.92   -5.31    0.14716    35.65  LEFT      3.11155E-01    67.38    2.26550E-01    85.00
  -50.00    55.00      -6.15   -9.42   -4.47    0.09447    34.26  LEFT      3.49538E-01    71.60    2.39868E-01    83.18
  -45.00    55.00      -5.63   -9.26   -4.07    0.05595    33.26  LEFT      3.71186E-01    75.40    2.44216E-01    82.38
  -40.00    55.00      -5.55   -9.44   -4.06    0.02783    32.55  LEFT      3.74670E-01    79.28    2.39307E-01    82.79
  -35.00    55.00      -5.86   -9.93   -4.43    0.00789    32.03  LEFT      3.61428E-01    83.66    2.26124E-01    84.67
  -30.00    55.00      -6.51  -10.70   -5.11    0.00502    31.68  RIGHT     3.35502E-01    89.02    2.07017E-01    88.37
  -25.00    55.00      -7.39  -11.65   -6.01    0.01122    31.49  RIGHT     3.02998E-01    95.80    1.85617E-01    94.35
  -20.00    55.00      -8.36  -12.59   -6.97    0.01094    31.55  RIGHT     2.71167E-01   104.24    1.66491E-01   102.84
  -15.00    55.00      -9.17  -13.27   -7.74    0.00591    31.98  RIGHT     2.46756E-01   113.92    1.54085E-01   113.17
  -10.00    55.00      -9.65  -13.46   -8.14    0.00035    32.84  RIGHT     2.33589E-01   123.23    1.50751E-01   123.19
   -5.00    55.00      -9.74  -13.19   -8.12    0.00184    33.93  LEFT      2.31092E-01   129.87    1.55446E-01   130.10
    0.00    55.00      -9.55  -12.65   -7.82    0.00000    35.00  LINEAR    2.36257E-01   132.06    1.65429E-01   132.06
  -90.00    60.00    -999.99 -999.99 -999.99    0.00000     0.00            3.80683E-12   160.79    2.03016E-12   -72.86
  -85.00    60.00     -23.36  -26.39  -21.60    0.56724   -24.58  LEFT      4.82112E-02    -8.34    3.40043E-02   105.99
  -80.00    60.00     -18.88  -20.57  -16.63    0.80866   -11.51  LEFT      8.07529E-02     8.83    6.64460E-02   103.61
  -75.00    60.00     -15.60  -17.27  -13.34    0.69217    28.68  LEFT      1.17775E-01    27.87    9.71714E-02   100.29
  -70.00    60.00     -12.50  -15.01  -10.57    0.46819    31.94  LEFT      1.68332E-01    43.26    1.25977E-01    96.44
  -65.00    60.00      -9.81  -13.36   -8.22    0.31631    30.86  LEFT      2.29323E-01    53.92    1.52350E-01    92.52
  -60.00    60.00      -7.71  -12.15   -6.37    0.21462    29.47  LEFT      2.92105E-01    61.24    1.75278E-01    88.95
  -55.00    60.00      -6.20  -11.29   -5.03    0.14445    28.32  LEFT      3.47613E-01    66.58    1.93326E-01    86.04
  -50.00    60.00      -5.23  -10.79   -4.16    0.09453    27.46  LEFT      3.88579E-01    70.89    2.04974E-01    84.01
  -45.00    60.00      -4.75  -10.61   -3.75    0.05827    26.85  LEFT      4.10536E-01    74.79    2.09089E-01    83.04
  -40.00    60.00      -4.72  -10.77   -3.75    0.03174    26.44  LEFT      4.12223E-01    78.75    2.05346E-01    83.31
  -35.00    60.00      -5.08  -11.24   -4.14    0.01272    26.18  LEFT      3.95559E-01    83.22    1.94500E-01    85.06
  -30.00    60.00      -5.77  -11.99   -4.84    0.00009    26.04  LEFT      3.65258E-01    88.65    1.78495E-01    88.67
  -25.00    60.00      -6.70  -12.92   -5.77    0.00649    26.05  RIGHT     3.28163E-01    95.51    1.60418E-01    94.56
  -20.00    60.00      -7.71  -13.84   -6.76    0.00719    26.26  RIGHT     2.92196E-01   104.03    1.44203E-01   102.99
  -15.00    60.00      -8.57  -14.50   -7.58    0.00352    26.81  RIGHT     2.64573E-01   113.76    1.33724E-01   113.26
  -10.00    60.00      -9.09  -14.67   -8.03    0.00080    27.74  LEFT      2.49247E-01   123.13    1.31059E-01   123.24
   -5.00    60.00      -9.22  -14.39   -8.07    0.00221    28.87  LEFT      2.45428E-01   129.82    1.35342E-01   130.12
    0.00    60.00      -9.07  -13.84   -7.82    0.00000    30.00  LINEAR    2.49776E-01   132.06    1.44208E-01   132.06
  -90.00    65.00    -999.99 -999.99 -999.99    0.00000     0.00            4.28396E-12   159.72    1.59601E-12   -64.34
  -85.00    65.00     -22.34  -28.49  -21.39    0.37594   -17.92  LEFT      5.42317E-02    -9.40    2.66944E-02   114.36
  -80.00    65.00     -17.87  -22.70  -16.63    0.54210   -11.02  LEFT      9.07282E-02     7.79    5.19730E-02   111.52
  -75.00    65.00     -14.60  -19.44  -13.37    0.55828     7.79  LEFT      1.32064E-01    26.87    7.56910E-02   107.46
  -70.00    65.00     -11.53  -17.21  -10.49    0.41782    17.59  LEFT      1.88254E-01    42.31    9.78708E-02   102.67
  -65.00    65.00      -8.87  -15.55   -8.02    0.29081    19.99  LEFT      2.55622E-01    53.03    1.18402E-01    97.71
  -60.00    65.00      -6.80  -14.30   -6.09    0.20117    20.39  LEFT      3.24363E-01    60.42    1.36730E-01    93.11
  -55.00    65.00      -5.33  -13.40   -4.70    0.13854    20.32  LEFT      3.84360E-01    65.84    1.51790E-01    89.28
  -50.00    65.00      -4.40  -12.82   -3.81    0.09370    20.20  LEFT      4.27682E-01    70.22    1.62260E-01    86.48
  -45.00    65.00      -3.96  -12.57   -3.40    0.06082    20.13  LEFT      4.49653E-01    74.19    1.67002E-01    84.89
  -40.00    65.00      -3.97  -12.65   -3.42    0.03644    20.13  LEFT      4.49226E-01    78.24    1.65484E-01    84.68
  -35.00    65.00      -4.37  -13.04   -3.82    0.01857    20.21  LEFT      4.28848E-01    82.78    1.58081E-01    86.06
  -30.00    65.00      -5.11  -13.72   -4.55    0.00623    20.36  LEFT      3.93941E-01    88.29    1.46214E-01    89.39
  -25.00    65.00      -6.09  -14.59   -5.51    0.00083    20.60  RIGHT     3.52095E-01    95.22    1.32339E-01    95.07
  -20.00    65.00      -7.14  -15.46   -6.54    0.00275    21.00  RIGHT     3.11889E-01   103.80    1.19713E-01   103.33
  -15.00    65.00      -8.05  -16.06   -7.41    0.00072    21.67  RIGHT     2.80969E-01   113.60    1.11629E-01   113.48
  -10.00    65.00      -8.61  -16.20   -7.91    0.00210    22.66  LEFT      2.63372E-01   123.03    1.09932E-01   123.37
   -5.00    65.00      -8.79  -15.88   -8.01    0.00260    23.83  LEFT      2.58072E-01   129.77    1.13995E-01   130.18
    0.00    65.00      -8.67  -15.30   -7.82    0.00000    25.00  LINEAR    2.61394E-01   132.06    1.21890E-01   132.06
  -90.00    70.00    -999.99 -999.99 -999.99    0.00000     0.00            4.76651E-12   158.77    1.18606E-12   -40.32
  -85.00    70.00     -21.41  -31.13  -20.97    0.15835   -15.96  LEFT      6.03188E-02   -10.35    1.96979E-02   138.08
  -80.00    70.00     -16.95  -25.52  -16.39    0.28035   -13.89  LEFT      1.00804E-01     6.86    3.75981E-02   134.31
  -75.00    70.00     -13.71  -22.49  -13.17    0.35250    -5.18  LEFT      1.46473E-01    25.96    5.32813E-02   128.54
  -70.00    70.00     -10.65  -20.49  -10.22    0.31585     3.63  LEFT      2.08294E-01    41.44    6.70930E-02   121.22
  -65.00    70.00      -8.02  -18.98   -7.68    0.24242     8.32  LEFT      2.81994E-01    52.22    7.97922E-02   113.14
  -60.00    70.00      -5.98  -17.76   -5.70    0.17810    10.56  LEFT      3.56578E-01    59.66    9.18673E-02   105.26
  -55.00    70.00      -4.54  -16.76   -4.28    0.12888    11.76  LEFT      4.20871E-01    65.14    1.03018E-01    98.43
  -50.00    70.00      -3.65  -16.02   -3.40    0.09175    12.54  LEFT      4.66292E-01    69.59    1.12192E-01    93.17
  -45.00    70.00      -3.25  -15.58   -3.00    0.06347    13.14  LEFT      4.87991E-01    73.63    1.18083E-01    89.68
  -40.00    70.00      -3.30  -15.46   -3.05    0.04177    13.67  LEFT      4.85173E-01    77.74    1.19706E-01    88.07
  -35.00    70.00      -3.75  -15.67   -3.48    0.02525    14.16  LEFT      4.60850E-01    82.36    1.16821E-01    88.44
  -30.00    70.00      -4.53  -16.18   -4.24    0.01324    14.64  LEFT      4.21176E-01    87.94    1.10146E-01    91.04
  -25.00    70.00      -5.55  -16.90   -5.24    0.00558    15.15  LEFT      3.74493E-01    94.93    1.01387E-01    96.20
  -20.00    70.00      -6.65  -17.64   -6.32    0.00226    15.75  LEFT      3.30010E-01   103.58    9.30624E-02   104.07
  -15.00    70.00      -7.60  -18.14   -7.23    0.00241    16.55  LEFT      2.95760E-01   113.44    8.78737E-02   113.95
  -10.00    70.00      -8.21  -18.18   -7.79    0.00354    17.59  LEFT      2.75819E-01   122.92    8.74727E-02   123.63
   -5.00    70.00      -8.43  -17.79   -7.95    0.00300    18.80  LEFT      2.68907E-01   129.72    9.15400E-02   130.29
    0.00    70.00      -8.36  -17.14   -7.82    0.00000    20.00  LINEAR    2.71023E-01   132.06    9.86442E-02   132.06
  -90.00    75.00    -999.99 -999.99 -999.99    0.00000     0.00            5.24683E-12   157.91    1.24920E-12     3.73
  -85.00    75.00     -20.58  -30.79  -20.19    0.06752   -16.76  RIGHT     6.63757E-02   -11.20    2.04785E-02  -177.40
  -80.00    75.00     -16.13  -25.54  -15.66    0.03167   -18.63  LEFT      1.10819E-01     6.02    3.75147E-02  -179.96
  -75.00    75.00     -12.90  -23.16  -12.51    0.14040   -15.28  LEFT      1.60772E-01    25.15    4.93382E-02   175.75
  -70.00    75.00      -9.86  -22.13   -9.61    0.18596    -8.93  LEFT      2.28134E-01    40.66    5.55176E-02   169.18
  -65.00    75.00      -7.25  -21.88   -7.10    0.17576    -3.42  LEFT      3.08017E-01    51.47    5.71762E-02   159.65
  -60.00    75.00      -5.24  -21.93   -5.15    0.14622     0.33  LEFT      3.88236E-01    58.96    5.68108E-02   146.78
  -55.00    75.00      -3.83  -21.85   -3.76    0.11544     2.83  LEFT      4.56567E-01    64.49    5.73431E-02   131.62
  -50.00    75.00      -2.98  -21.41   -2.91    0.08846     4.62  LEFT      5.03802E-01    69.00    6.03324E-02   117.03
  -45.00    75.00      -2.62  -20.77   -2.55    0.06593     5.98  LEFT      5.24950E-01    73.10    6.49614E-02   105.69
  -40.00    75.00      -2.71  -20.22   -2.63    0.04743     7.09  LEFT      5.19506E-01    77.27    6.91516E-02    98.48
  -35.00    75.00      -3.20  -19.97   -3.11    0.03248     8.04  LEFT      4.91077E-01    81.95    7.11955E-02    95.16
  -30.00    75.00      -4.02  -20.06   -3.92    0.02083     8.89  LEFT      4.46560E-01    87.59    7.05021E-02    95.36
  -25.00    75.00      -5.09  -20.41   -4.96    0.01251     9.70  LEFT      3.95037E-01    94.65    6.76841E-02    98.96
  -20.00    75.00      -6.23  -20.85   -6.08    0.00766    10.52  LEFT      3.46314E-01   103.36    6.43511E-02   105.80
  -15.00    75.00      -7.23  -21.09   -7.05    0.00578    11.45  LEFT      3.08757E-01   113.28    6.25624E-02   114.98
  -10.00    75.00      -7.88  -20.92   -7.67    0.00507    12.55  LEFT      2.86445E-01   122.82    6.38015E-02   124.19
   -5.00    75.00      -8.14  -20.35   -7.89    0.00341    13.78  LEFT      2.77827E-01   129.67    6.81227E-02   130.52
    0.00    75.00      -8.12  -19.56   -7.82    0.00000    15.00  LINEAR    2.78589E-01   132.06    7.46477E-02   132.06
  -90.00    80.00    -999.99 -999.99 -999.99    0.00000     0.00            5.71681E-12   157.14    2.05426E-12    32.87
  -85.00    80.00     -19.84  -26.45  -18.98    0.29022   -20.26  RIGHT     7.23002E-02   -11.97    3.37596E-02  -147.68
  -80.00    80.00     -15.39  -21.14  -14.37    0.18711   -25.80  RIGHT     1.20606E-01     5.27    6.22653E-02  -148.40
  -75.00    80.00     -12.17  -18.69  -11.30    0.04204   -25.21  RIGHT     1.74719E-01    24.42    8.25476E-02  -149.35
  -70.00    80.00      -9.15  -17.65   -8.58    0.06059   -20.36  LEFT      2.47435E-01    39.95    9.30244E-02  -150.61
  -65.00    80.00      -6.57  -17.59   -6.23    0.10362   -14.65  LEFT      3.33245E-01    50.80    9.36541E-02  -152.38
  -60.00    80.00      -4.58  -18.35   -4.40    0.10938    -9.83  LEFT      4.18790E-01    58.32    8.58198E-02  -155.02
  -55.00    80.00      -3.20  -19.87   -3.11    0.09913    -6.17  LEFT      4.90827E-01    63.89    7.20177E-02  -159.22
  -50.00    80.00      -2.38  -22.14   -2.33    0.08379    -3.41  LEFT      5.39557E-01    68.45    5.54828E-02  -166.41
  -45.00    80.00      -2.06  -24.99   -2.04    0.06786    -1.27  LEFT      5.59886E-01    72.60    3.99560E-02  -179.45
  -40.00    80.00      -2.19  -27.60   -2.17    0.05302     0.46  LEFT      5.51631E-01    76.83    2.95862E-02   158.18
  -35.00    80.00      -2.72  -28.41   -2.71    0.03987     1.91  LEFT      5.19011E-01    81.56    2.69584E-02   131.78
  -30.00    80.00      -3.58  -27.73   -3.57    0.02869     3.15  LEFT      4.69665E-01    87.26    2.91571E-02   114.87
  -25.00    80.00      -4.69  -26.95   -4.67    0.01973     4.26  LEFT      4.13390E-01    94.37    3.18779E-02   109.28
  -20.00    80.00      -5.88  -26.43   -5.84    0.01329     5.31  LEFT      3.60544E-01   103.14    3.38568E-02   111.35
  -15.00    80.00      -6.92  -25.93   -6.87    0.00928     6.38  LEFT      3.19773E-01   113.12    3.58663E-02   117.92
  -10.00    80.00      -7.62  -25.18   -7.55    0.00664     7.53  LEFT      2.95112E-01   122.71    3.90687E-02   125.64
   -5.00    80.00      -7.93  -24.17   -7.83    0.00381     8.76  LEFT      2.84736E-01   129.62    4.39031E-02   131.07
    0.00    80.00      -7.95  -23.03   -7.82    0.00000    10.00  LINEAR    2.84035E-01   132.06    5.00830E-02   132.06
  -90.00    85.00    -999.99 -999.99 -999.99    0.00000     0.00            6.16793E-12   156.46    3.31033E-12    44.89
  -85.00    85.00     -19.18  -22.28  -17.45    0.48897   -28.07  RIGHT     7.79845E-02   -12.65    5.45973E-02  -135.52
  -80.00    85.00     -14.74  -16.86  -12.66    0.34674   -36.12  RIGHT     1.29984E-01     4.59    1.01805E-01  -135.79
  -75.00    85.00     -11.53  -14.25   -9.67    0.17028   -35.64  RIGHT     1.88057E-01    23.76    1.37563E-01  -135.92
  -70.00    85.00      -8.53  -12.96   -7.19    0.03681   -30.92  RIGHT     2.65837E-01    39.31    1.59506E-01  -135.91
  -65.00    85.00      -5.96  -12.56   -5.10    0.03966   -25.00  LEFT      3.57204E-01    50.18    1.67150E-01  -135.74
  -60.00    85.00      -4.00  -12.84   -3.47    0.07304   -19.49  LEFT      4.47661E-01    57.73    1.61763E-01  -135.40
  -55.00    85.00      -2.65  -13.73   -2.32    0.08156   -14.95  LEFT      5.22993E-01    63.34    1.45973E-01  -134.89
  -50.00    85.00      -1.86  -15.21   -1.66    0.07789   -11.34  LEFT      5.72863E-01    67.94    1.23209E-01  -134.19
  -45.00    85.00      -1.57  -17.27   -1.46    0.06895    -8.46  LEFT      5.92116E-01    72.13    9.71128E-02  -133.31
  -40.00    85.00      -1.74  -19.99   -1.67    0.05812    -6.14  LEFT      5.80918E-01    76.40    7.10061E-02  -132.34
  -35.00    85.00      -2.31  -23.49   -2.27    0.04702    -4.21  LEFT      5.44106E-01    81.19    4.75056E-02  -131.59
  -30.00    85.00      -3.22  -27.98   -3.20    0.03645    -2.57  LEFT      4.90046E-01    86.94    2.83287E-02  -132.25
  -25.00    85.00      -4.37  -33.85   -4.36    0.02695    -1.14  LEFT      4.29209E-01    94.10    1.43977E-02  -139.37
  -20.00    85.00      -5.60  -39.98   -5.60    0.01896     0.13  LEFT      3.72446E-01   102.92    7.11346E-03  -173.94
  -15.00    85.00      -6.69  -38.21   -6.68    0.01282     1.33  LEFT      3.28622E-01   112.96    8.71729E-03   141.86
  -10.00    85.00      -7.43  -34.38   -7.42    0.00821     2.53  LEFT      3.01691E-01   122.61    1.35529E-02   133.15
   -5.00    85.00      -7.79  -31.42   -7.77    0.00420     3.76  LEFT      2.89551E-01   129.57    1.90646E-02   133.24
    0.00    85.00      -7.85  -29.01   -7.82    0.00000     5.00  LINEAR    2.87319E-01   132.06    2.51371E-02   132.06
  -90.00    90.00    -999.99 -999.99 -999.99    0.00000     0.00            6.59119E-12   155.84    4.86815E-12    50.31
  -85.00    90.00     -18.61  -18.91  -15.75    0.61438   -42.77  RIGHT     8.33153E-02   -13.27    8.04355E-02  -130.06
  -80.00    90.00     -14.17  -13.45  -10.79    0.42013   -48.41  RIGHT     1.38766E-01     3.99    1.50812E-01  -130.23
  -75.00    90.00     -10.98  -10.75   -7.85    0.23680   -45.82  RIGHT     2.00515E-01    23.16    2.05723E-01  -130.19
  -70.00    90.00      -7.99   -9.35   -5.60    0.09826   -40.44  RIGHT     2.82965E-01    38.73    2.41892E-01  -129.91
  -65.00    90.00      -5.44   -8.77   -3.78    0.00826   -34.26  RIGHT     3.79396E-01    49.62    2.58414E-01  -129.36
  -60.00    90.00      -3.50   -8.83   -2.39    0.04173   -28.35  LEFT      4.74236E-01    57.20    2.56620E-01  -128.51
  -55.00    90.00      -2.18   -9.43   -1.43    0.06453   -23.23  LEFT      5.52374E-01    62.84    2.39619E-01  -127.30
  -50.00    90.00      -1.41  -10.51   -0.91    0.07115   -18.97  LEFT      6.02996E-01    67.46    2.11648E-01  -125.63
  -45.00    90.00      -1.16  -12.04   -0.82    0.06898   -15.50  LEFT      6.20931E-01    71.70    1.77358E-01  -123.37
  -40.00    90.00      -1.36  -14.03   -1.13    0.06231   -12.64  LEFT      6.06716E-01    76.01    1.41161E-01  -120.32
  -35.00    90.00      -1.97  -16.45   -1.82    0.05349   -10.26  LEFT      5.65803E-01    80.84    1.06741E-01  -116.19
  -30.00    90.00      -2.92  -19.32   -2.82    0.04377    -8.24  LEFT      5.07251E-01    86.63    7.67499E-02  -110.55
  -25.00    90.00      -4.11  -22.59   -4.05    0.03389    -6.52  LEFT      4.42147E-01    93.84    5.26718E-02  -102.90
  -20.00    90.00      -5.38  -26.19   -5.35    0.02448    -5.02  LEFT      3.81767E-01   102.72    3.48033E-02   -92.98
  -15.00    90.00      -6.52  -30.05   -6.50    0.01627    -3.69  LEFT      3.35126E-01   112.80    2.23015E-02   -81.41
  -10.00    90.00      -7.30  -34.44   -7.30    0.00973    -2.46  LEFT      3.06062E-01   122.50    1.34605E-02   -70.31
   -5.00    90.00      -7.71  -40.85   -7.70    0.00456    -1.23  LEFT      2.92201E-01   129.52    6.43598E-03   -62.44
    0.00    90.00      -7.82 -191.20   -7.82    0.00000     0.00  LINEAR    2.88416E-01   132.06    1.95388E-10    31.74
  -90.00    95.00    -999.99 -999.99 -999.99    0.00000     0.00            6.97710E-12   155.28    6.68385E-12    53.06
  -85.00    95.00     -18.11  -16.15  -14.01    0.61771   -59.88  RIGHT     8.81726E-02   -13.82    1.10534E-01  -127.31
  -80.00    95.00     -13.69  -10.67   -8.91    0.41870   -59.23  RIGHT     1.46753E-01     3.44    2.07803E-01  -127.45
  -75.00    95.00     -10.50   -7.93   -6.02    0.25524   -54.57  RIGHT     2.11809E-01    22.62    2.84774E-01  -127.35
  -70.00    95.00      -7.52   -6.47   -3.95    0.12882   -48.60  RIGHT     2.98420E-01    38.20    3.37094E-01  -127.00
  -65.00    95.00      -4.99   -5.81   -2.37    0.03930   -42.30  RIGHT     3.99297E-01    49.11    3.63401E-01  -126.37
  -60.00    95.00      -3.08   -5.77   -1.21    0.01759   -36.25  LEFT      4.97881E-01    56.71    3.65173E-01  -125.40
  -55.00    95.00      -1.78   -6.23   -0.45    0.04938   -30.83  LEFT      5.78255E-01    62.38    3.46181E-01  -124.04
  -50.00    95.00      -1.04   -7.15   -0.09    0.06403   -26.17  LEFT      6.29207E-01    67.03    3.11696E-01  -122.20
  -45.00    95.00      -0.82   -8.47   -0.13    0.06789   -22.25  LEFT      6.45602E-01    71.29    2.67621E-01  -119.72
  -40.00    95.00      -1.06  -10.18   -0.56    0.06531   -18.96  LEFT      6.28363E-01    75.64    2.19695E-01  -116.41
  -35.00    95.00      -1.70  -12.27   -1.33    0.05895   -16.19  LEFT      5.83539E-01    80.50    1.72876E-01  -111.95
  -30.00    95.00      -2.69  -14.68   -2.42    0.05031   -13.84  LEFT      5.20829E-01    86.34    1.30968E-01  -105.91
  -25.00    95.00      -3.92  -17.34   -3.73    0.04029   -11.84  LEFT      4.51865E-01    93.60    9.64379E-02   -97.77
  -20.00    95.00      -5.24  -20.08   -5.10    0.02966   -10.13  LEFT      3.88263E-01   102.51    7.03439E-02   -87.21
  -15.00    95.00      -6.41  -22.66   -6.31    0.01954    -8.69  LEFT      3.39121E-01   112.65    5.22505E-02   -74.81
  -10.00    95.00      -7.25  -24.92   -7.17    0.01117    -7.42  LEFT      3.08121E-01   122.40    4.02925E-02   -62.58
   -5.00    95.00      -7.69  -26.94   -7.64    0.00489    -6.22  LEFT      2.92632E-01   129.46    3.19205E-02   -53.13
    0.00    95.00      -7.85  -29.01   -7.82    0.00000    -5.00  LINEAR    2.87319E-01   132.06    2.51371E-02   -47.94
  -90.00   100.00    -999.99 -999.99 -999.99    0.00000     0.00            7.31562E-12   154.78    8.73782E-12    54.56
  -85.00   100.00     -17.70  -13.82  -12.33    0.55011   -70.81  RIGHT     9.24298E-02   -14.32    1.44564E-01  -125.80
  -80.00   100.00     -13.28   -8.32   -7.12    0.38204   -66.92  RIGHT     1.53735E-01     2.94    2.72139E-01  -125.94
  -75.00   100.00     -10.11   -5.57   -4.26    0.24693   -61.41  RIGHT     2.21639E-01    22.13    3.73785E-01  -125.83
  -70.00   100.00      -7.14   -4.07   -2.33    0.13868   -55.32  RIGHT     3.11788E-01    37.73    4.43912E-01  -125.46
  -65.00   100.00      -4.63   -3.38   -0.95    0.05667   -49.13  RIGHT     4.16366E-01    48.65    4.80677E-01  -124.80
  -60.00   100.00      -2.73   -3.29    0.01    0.00057   -43.17  LEFT      5.17938E-01    56.27    4.85792E-01  -123.80
  -55.00   100.00      -1.46   -3.69    0.58    0.03680   -37.69  LEFT      5.99899E-01    61.95    4.63869E-01  -122.41
  -50.00   100.00      -0.75   -4.53    0.77    0.05695   -32.85  LEFT      6.50733E-01    66.63    4.21440E-01  -120.52
  -45.00   100.00      -0.56   -5.75    0.59    0.06576   -28.65  LEFT      6.65393E-01    70.92    3.65899E-01  -118.00
  -40.00   100.00      -0.83   -7.35    0.05    0.06697   -25.05  LEFT      6.45199E-01    75.29    3.04518E-01  -114.65
  -35.00   100.00      -1.50   -9.28   -0.83    0.06312   -21.98  LEFT      5.96757E-01    80.19    2.43701E-01  -110.15
  -30.00   100.00      -2.53  -11.51   -2.01    0.05579   -19.35  LEFT      5.30341E-01    86.07    1.88512E-01  -104.08
  -25.00   100.00      -3.80  -13.95   -3.40    0.04591   -17.10  LEFT      4.58037E-01    93.36    1.42453E-01   -95.94
  -20.00   100.00      -5.16  -16.40   -4.85    0.03433   -15.21  LEFT      3.91709E-01   102.32    1.07343E-01   -85.41
  -15.00   100.00      -6.38  -18.63   -6.13    0.02252   -13.66  LEFT      3.40457E-01   112.50    8.31062E-02   -73.11
  -10.00   100.00      -7.26  -20.42   -7.05    0.01247   -12.37  LEFT      3.07779E-01   122.30    6.76323E-02   -61.11
   -5.00   100.00      -7.75  -21.82   -7.58    0.00516   -11.19  LEFT      2.90804E-01   129.41    5.75729E-02   -52.14
    0.00   100.00      -7.95  -23.03   -7.82    0.00000   -10.00  LINEAR    2.84035E-01   132.06    5.00830E-02   -47.94
  -90.00   105.00    -999.99 -999.99 -999.99    0.00000     0.00            7.59620E-12   154.33    1.10139E-11    55.40
  -85.00   105.00     -17.38  -11.81  -10.74    0.47373   -76.66  RIGHT     9.59541E-02   -14.77    1.82256E-01  -124.96
  -80.00   105.00     -12.97   -6.31   -5.46    0.33727   -72.07  RIGHT     1.59493E-01     2.49    3.43302E-01  -125.09
  -75.00   105.00      -9.80   -3.54   -2.62    0.22741   -66.59  RIGHT     2.29694E-01    21.69    4.72017E-01  -124.97
  -70.00   105.00      -6.85   -2.03   -0.80    0.13680   -60.76  RIGHT     3.22638E-01    37.29    5.61426E-01  -124.60
  -65.00   105.00      -4.35   -1.33    0.43    0.06458   -54.87  RIGHT     4.30041E-01    48.23    6.09181E-01  -123.93
  -60.00   105.00      -2.47   -1.21    1.21    0.01054   -49.15  RIGHT     5.33733E-01    55.86    6.17330E-01  -122.92
  -55.00   105.00      -1.22   -1.58    1.61    0.02684   -43.81  LEFT      6.16562E-01    61.56    5.91503E-01  -121.52
  -50.00   105.00      -0.54   -2.38    1.65    0.05023   -38.96  LEFT      6.66811E-01    66.26    5.39721E-01  -119.62
  -45.00   105.00      -0.38   -3.56    1.33    0.06276   -34.65  LEFT      6.79578E-01    70.57    4.71096E-01  -117.10
  -40.00   105.00      -0.67   -5.10    0.66    0.06725   -30.87  LEFT      6.56575E-01    74.97    3.94640E-01  -113.75
  -35.00   105.00      -1.39   -6.96   -0.32    0.06587   -27.58  LEFT      6.04920E-01    79.90    3.18351E-01  -109.25
  -30.00   105.00      -2.45   -9.11   -1.60    0.06003   -24.74  LEFT      5.35371E-01    85.81    2.48650E-01  -103.20
  -25.00   105.00      -3.76  -11.44   -3.07    0.05057   -22.29  LEFT      4.60364E-01    93.14    1.90112E-01   -95.08
  -20.00   105.00      -5.16  -13.77   -4.60    0.03835   -20.25  LEFT      3.91900E-01   102.14    1.45306E-01   -84.61
  -15.00   105.00      -6.42  -15.85   -5.95    0.02512   -18.61  LEFT      3.39006E-01   112.36    1.14456E-01   -72.39
  -10.00   105.00      -7.34  -17.45   -6.93    0.01360   -17.31  LEFT      3.04965E-01   122.20    9.51281E-02   -60.54
   -5.00   105.00      -7.87  -18.63   -7.52    0.00539   -16.16  LEFT      2.86697E-01   129.36    8.31020E-02   -51.79
    0.00   105.00      -8.12  -19.56   -7.82    0.00000   -15.00  LINEAR    2.78589E-01   132.06    7.46477E-02   -47.94
  -90.00   110.00    -999.99 -999.99 -999.99    0.00000     0.00            7.80791E-12   153.92    1.34931E-11    55.88
  -85.00   110.00     -17.14  -10.04   -9.27    0.40636   -80.04  RIGHT     9.86075E-02   -15.18    2.23299E-01  -124.48
  -80.00   110.00     -12.73   -4.54   -3.93    0.29464   -75.63  RIGHT     1.63801E-01     2.09    4.20694E-01  -124.61
  -75.00   110.00      -9.57   -1.77   -1.11    0.20468   -70.54  RIGHT     2.35652E-01    21.29    5.78628E-01  -124.49
  -70.00   110.00      -6.64   -0.26    0.64    0.12904   -65.15  RIGHT     3.30530E-01    36.90    6.88601E-01  -124.11
  -65.00   110.00      -4.16    0.45    1.74    0.06652   -59.68  RIGHT     4.39756E-01    47.84    7.47748E-01  -123.44
  -60.00   110.00      -2.30    0.58    2.38    0.01722   -54.33  RIGHT     5.44591E-01    55.49    7.58554E-01  -122.43
  -55.00   110.00      -1.07    0.22    2.63    0.01922   -49.24  LEFT      6.27502E-01    61.20    7.27848E-01  -121.02
  -50.00   110.00      -0.41   -0.56    2.53    0.04405   -44.51  LEFT      6.76691E-01    65.92    6.65359E-01  -119.13
  -45.00   110.00      -0.28   -1.72    2.07    0.05909   -40.22  LEFT      6.87451E-01    70.25    5.82139E-01  -116.61
  -40.00   110.00      -0.60   -3.23    1.29    0.06626   -36.39  LEFT      6.61877E-01    74.68    4.89122E-01  -113.25
  -35.00   110.00      -1.35   -5.07    0.19    0.06716   -32.99  LEFT      6.07527E-01    79.63    3.96039E-01  -108.77
  -30.00   110.00      -2.44   -7.17   -1.18    0.06289   -29.99  LEFT      5.35541E-01    85.57    3.10747E-01  -102.73
  -25.00   110.00      -3.79   -9.46   -2.75    0.05411   -27.40  LEFT      4.58576E-01    92.93    2.38920E-01   -94.64
  -20.00   110.00      -5.23  -11.73   -4.35    0.04158   -25.23  LEFT      3.88661E-01   101.96    1.83847E-01   -84.20
  -15.00   110.00      -6.53  -13.73   -5.77    0.02727   -23.53  LEFT      3.34665E-01   112.22    1.45996E-01   -72.04
  -10.00   110.00      -7.49  -15.26   -6.82    0.01451   -22.23  LEFT      2.99633E-01   122.11    1.22529E-01   -60.27
   -5.00   110.00      -8.07  -16.33   -7.46    0.00554   -21.12  LEFT      2.80310E-01   129.31    1.08294E-01   -51.63
    0.00   110.00      -8.36  -17.14   -7.82    0.00000   -20.00  LINEAR    2.71023E-01   132.06    9.86442E-02   -47.94
  -90.00   115.00    -999.99 -999.99 -999.99    0.00000     0.00            7.93960E-12   153.55    1.61520E-11    56.14
  -85.00   115.00     -17.00   -8.48   -7.91    0.34958   -82.19  RIGHT     1.00250E-01   -15.55    2.67291E-01  -124.22
  -80.00   115.00     -12.60   -2.98   -2.53    0.25673   -78.20  RIGHT     1.66428E-01     1.72    5.03553E-01  -124.34
  -75.00   115.00      -9.45   -0.21    0.28    0.18215   -73.62  RIGHT     2.39190E-01    20.93    6.92555E-01  -124.23
  -70.00   115.00      -6.52    1.30    1.96    0.11873   -68.73  RIGHT     3.35024E-01    36.55    8.24147E-01  -123.85
  -65.00   115.00      -4.05    2.02    2.97    0.06492   -63.75  RIGHT     4.44947E-01    47.50    8.94947E-01  -123.17
  -60.00   115.00      -2.22    2.14    3.50    0.02080   -58.81  RIGHT     5.49850E-01    55.15    9.07976E-01  -122.16
  -55.00   115.00      -1.01    1.78    3.62    0.01353   -54.05  LEFT      6.32005E-01    60.88    8.71441E-01  -120.75
  -50.00   115.00      -0.37    1.01    3.38    0.03849   -49.56  LEFT      6.79659E-01    65.61    7.96987E-01  -118.85
  -45.00   115.00      -0.26   -0.15    2.81    0.05498   -45.39  LEFT      6.88352E-01    69.96    6.97802E-01  -116.33
  -40.00   115.00      -0.62   -1.65    1.91    0.06415   -41.59  LEFT      6.60537E-01    74.41    5.86916E-01  -112.99
  -35.00   115.00      -1.40   -3.47    0.70    0.06704   -38.17  LEFT      6.04128E-01    79.38    4.75906E-01  -108.51
  -30.00   115.00      -2.53   -5.56   -0.77    0.06435   -35.11  LEFT      5.30516E-01    85.34    3.74125E-01  -102.48
  -25.00   115.00      -3.91   -7.82   -2.43    0.05646   -32.42  LEFT      4.52448E-01    92.73    2.88353E-01   -94.40
  -20.00   115.00      -5.38  -10.07   -4.11    0.04394   -30.17  LEFT      3.81852E-01   101.80    2.22568E-01   -83.99
  -15.00   115.00      -6.72  -12.04   -5.60    0.02888   -28.42  LEFT      3.27360E-01   112.09    1.77414E-01   -71.86
  -10.00   115.00      -7.72  -13.52   -6.71    0.01518   -27.13  LEFT      2.91759E-01   122.02    1.49583E-01   -60.13
   -5.00   115.00      -8.34  -14.55   -7.41    0.00563   -26.07  LEFT      2.71663E-01   129.27    1.32937E-01   -51.55
[...]
  -40.00   320.00      -8.63   -7.21   -4.85    0.02045   -49.66  RIGHT     2.62850E-01   -99.10    3.09502E-01    83.28
  -35.00   320.00      -8.80   -7.63   -5.16    0.00031   -48.85  LEFT      2.57663E-01   -95.01    2.94800E-01    84.96
  -30.00   320.00      -9.31   -8.34   -5.79    0.01335   -48.19  LEFT      2.42929E-01   -89.92    2.71550E-01    88.54
  -25.00   320.00     -10.07   -9.25   -6.63    0.01890   -47.69  LEFT      2.22698E-01   -83.38    2.44621E-01    94.45
  -20.00   320.00     -10.91  -10.16   -7.51    0.01713   -47.45  LEFT      2.02175E-01   -75.14    2.20207E-01   102.89
  -15.00   320.00     -11.61  -10.81   -8.18    0.01006   -47.62  LEFT      1.86507E-01   -65.65    2.04385E-01   113.19
  -10.00   320.00     -11.97  -10.98   -8.44    0.00259   -48.26  LEFT      1.78874E-01   -56.50    2.00449E-01   123.20
   -5.00   320.00     -11.95  -10.69   -8.27    0.00094   -49.14  RIGHT     1.79184E-01   -50.01    2.07151E-01   130.10
    0.00   320.00     -11.66  -10.13   -7.82    0.00000   -50.00  LINEAR    1.85390E-01   -47.94    2.20940E-01   132.06
  -90.00   325.00    -999.99 -999.99 -999.99    0.00000     0.00            1.72479E-12   -11.94    2.82409E-12   -59.03
  -85.00   325.00     -30.21  -23.53  -22.68    0.37483    74.53  RIGHT     2.19051E-02   178.85    4.72695E-02   119.36
  -80.00   325.00     -25.66  -17.71  -17.07    0.39264    85.35  RIGHT     3.69967E-02  -164.22    9.23158E-02   115.65
  -75.00   325.00     -22.26  -14.39  -13.73    0.38714   -83.38  RIGHT     5.46839E-02  -145.55    1.35443E-01   110.34
  -70.00   325.00     -19.01  -12.04  -11.25    0.34071   -73.56  RIGHT     7.95577E-02  -130.63    1.77385E-01   104.21
  -65.00   325.00     -16.14  -10.24   -9.25    0.27014   -66.57  RIGHT     1.10719E-01  -120.51    2.18267E-01    98.10
  -60.00   325.00     -13.83   -8.83   -7.64    0.19804   -62.07  RIGHT     1.44459E-01  -113.79    2.56663E-01    92.69
  -55.00   325.00     -12.09   -7.78   -6.41    0.13568   -59.21  RIGHT     1.76409E-01  -109.05    2.89608E-01    88.40
  -50.00   325.00     -10.89   -7.09   -5.58    0.08573   -57.33  RIGHT     2.02567E-01  -105.34    3.13525E-01    85.43
  -45.00   325.00     -10.18   -6.77   -5.14    0.04735   -56.00  RIGHT     2.19919E-01  -102.01    3.25457E-01    83.84
  -40.00   325.00      -9.90   -6.81   -5.08    0.01884   -55.01  RIGHT     2.26876E-01   -98.58    3.24059E-01    83.72
  -35.00   325.00     -10.03   -7.19   -5.37    0.00130   -54.22  LEFT      2.23547E-01   -94.59    3.10141E-01    85.25
  -30.00   325.00     -10.50   -7.87   -5.98    0.01392   -53.56  LEFT      2.11787E-01   -89.59    2.86783E-01    88.74
  -25.00   325.00     -11.22   -8.75   -6.80    0.01924   -53.04  LEFT      1.95034E-01   -83.13    2.59144E-01    94.58
  -20.00   325.00     -12.02   -9.64   -7.66    0.01739   -52.76  LEFT      1.77812E-01   -74.96    2.33866E-01   102.97
  -15.00   325.00     -12.69  -10.27   -8.30    0.01034   -52.87  LEFT      1.64684E-01   -65.53    2.17514E-01   113.24
  -10.00   325.00     -13.02  -10.42   -8.52    0.00289   -53.43  LEFT      1.58531E-01   -56.43    2.13703E-01   123.22
   -5.00   325.00     -12.97  -10.12   -8.31    0.00071   -54.23  RIGHT     1.59362E-01   -49.97    2.21194E-01   130.11
    0.00   325.00     -12.65   -9.55   -7.82    0.00000   -55.00  LINEAR    1.65429E-01   -47.94    2.36257E-01   132.06
  -90.00   330.00    -999.99 -999.99 -999.99    0.00000     0.00            1.39878E-12   -10.16    2.86226E-12   -51.99
  -85.00   330.00     -32.02  -23.43  -22.87    0.28743    76.65  RIGHT     1.77767E-02  -179.40    4.78090E-02   126.23
  -80.00   330.00     -27.45  -17.66  -17.23    0.31122    84.85  RIGHT     3.00840E-02  -162.54    9.28832E-02   122.01
  -75.00   330.00     -24.03  -14.38  -13.93    0.32281   -86.29  RIGHT     4.46075E-02  -143.99    1.35514E-01   115.86
  -70.00   330.00     -20.74  -12.06  -11.51    0.29922   -77.82  RIGHT     6.51672E-02  -129.23    1.76982E-01   108.66
  -65.00   330.00     -17.83  -10.25   -9.55    0.24609   -71.25  RIGHT     9.11345E-02  -119.27    2.18136E-01   101.45
  -60.00   330.00     -15.47   -8.79   -7.95    0.18389   -66.88  RIGHT     1.19541E-01  -112.72    2.57935E-01    95.07
  -55.00   330.00     -13.69   -7.68   -6.70    0.12690   -64.12  RIGHT     1.46792E-01  -108.14    2.93254E-01    90.04
  -50.00   330.00     -12.44   -6.92   -5.84    0.08022   -62.34  RIGHT     1.69499E-01  -104.58    3.19982E-01    86.53
  -45.00   330.00     -11.68   -6.53   -5.37    0.04410   -61.13  RIGHT     1.85018E-01  -101.39    3.34555E-01    84.57
  -40.00   330.00     -11.36   -6.52   -5.28    0.01725   -60.22  RIGHT     1.91861E-01   -98.08    3.35160E-01    84.21
  -35.00   330.00     -11.45   -6.85   -5.56    0.00169   -59.49  LEFT      1.89966E-01   -94.20    3.22374E-01    85.58
  -30.00   330.00     -11.88   -7.50   -6.15    0.01356   -58.87  LEFT      1.80789E-01   -89.29    2.99298E-01    88.95
  -25.00   330.00     -12.56   -8.35   -6.95    0.01855   -58.37  LEFT      1.67185E-01   -82.90    2.71329E-01    94.72
  -20.00   330.00     -13.33   -9.22   -7.79    0.01678   -58.07  LEFT      1.53012E-01   -74.80    2.45505E-01   103.06
  -15.00   330.00     -13.96   -9.83   -8.41    0.01007   -58.14  LEFT      1.42222E-01   -65.42    2.28833E-01   113.30
  -10.00   330.00     -14.26   -9.97   -8.59    0.00297   -58.62  LEFT      1.37364E-01   -56.36    2.25237E-01   123.26
   -5.00   330.00     -14.19   -9.65   -8.34    0.00052   -59.32  RIGHT     1.38514E-01   -49.94    2.33508E-01   130.13
    0.00   330.00     -13.84   -9.07   -7.82    0.00000   -60.00  LINEAR    1.44208E-01   -47.94    2.49776E-01   132.06
  -90.00   335.00    -999.99 -999.99 -999.99    0.00000     0.00            1.10576E-12    -8.38    2.91904E-12   -44.82
  -85.00   335.00     -34.06  -23.28  -22.93    0.21068    78.77  RIGHT     1.40623E-02  -177.64    4.86233E-02   133.26
  -80.00   335.00     -29.47  -17.58  -17.31    0.23796    84.87  RIGHT     2.38446E-02  -160.87    9.37699E-02   128.59
  -75.00   335.00     -26.02  -14.38  -14.09    0.25998   -88.35  RIGHT     3.54659E-02  -142.45    1.35587E-01   121.65
  -70.00   335.00     -22.70  -12.11  -11.75    0.25366   -81.34  RIGHT     5.20219E-02  -127.84    1.75940E-01   113.38
  -65.00   335.00     -19.74  -10.31   -9.84    0.21659   -75.45  RIGHT     7.30955E-02  -118.07    2.16601E-01   105.00
  -60.00   335.00     -17.34   -8.82   -8.25    0.16508   -71.37  RIGHT     9.63723E-02  -111.69    2.57126E-01    97.59
  -55.00   335.00     -15.51   -7.64   -6.99    0.11475   -68.79  RIGHT     1.18970E-01  -107.28    2.94334E-01    91.74
  -50.00   335.00     -14.22   -6.82   -6.09    0.07257   -67.18  RIGHT     1.38099E-01  -103.88    3.23599E-01    87.66
  -45.00   335.00     -13.41   -6.37   -5.59    0.03978   -66.11  RIGHT     1.51509E-01  -100.82    3.40721E-01    85.32
  -40.00   335.00     -13.05   -6.30   -5.47    0.01544   -65.32  RIGHT     1.57865E-01   -97.63    3.43385E-01    84.70
  -35.00   335.00     -13.10   -6.60   -5.72    0.00169   -64.68  LEFT      1.57002E-01   -93.85    3.31904E-01    85.90
  -30.00   335.00     -13.50   -7.21   -6.29    0.01241   -64.14  LEFT      1.50028E-01   -89.02    3.09356E-01    89.17
  -25.00   335.00     -14.14   -8.04   -7.08    0.01694   -63.68  LEFT      1.39257E-01   -82.70    2.81328E-01    94.86
  -20.00   335.00     -14.88   -8.88   -7.91    0.01536   -63.39  LEFT      1.27888E-01   -74.65    2.55197E-01   103.15
  -15.00   335.00     -15.49   -9.48   -8.51    0.00928   -63.43  LEFT      1.19242E-01   -65.32    2.38361E-01   113.35
  -10.00   335.00     -15.77   -9.60   -8.66    0.00284   -63.83  LEFT      1.15502E-01   -56.30    2.35026E-01   123.29
   -5.00   335.00     -15.67   -9.27   -8.38    0.00037   -64.43  RIGHT     1.16782E-01   -49.91    2.44030E-01   130.14
    0.00   335.00     -15.30   -8.67   -7.82    0.00000   -65.00  LINEAR    1.21890E-01   -47.94    2.61394E-01   132.06
  -90.00   340.00    -999.99 -999.99 -999.99    0.00000     0.00            8.43389E-13    -6.66    2.99819E-12   -38.21
  -85.00   340.00     -36.41  -23.08  -22.88    0.14686    81.03  RIGHT     1.07323E-02  -175.96    4.97914E-02   139.78
  -80.00   340.00     -31.80  -17.45  -17.29    0.17372    85.40  RIGHT     1.82311E-02  -159.28    9.52212E-02   134.79
  -75.00   340.00     -28.33  -14.34  -14.17    0.19961   -89.63  RIGHT     2.71946E-02  -140.99    1.36167E-01   127.23
  -70.00   340.00     -24.97  -12.16  -11.94    0.20448   -84.14  RIGHT     4.00386E-02  -126.55    1.75035E-01   118.00
  -65.00   340.00     -21.98  -10.39  -10.10    0.18120   -79.18  RIGHT     5.65026E-02  -116.95    2.14629E-01   108.50
  -60.00   340.00     -19.54   -8.88   -8.52    0.14095   -75.57  RIGHT     7.48461E-02  -110.74    2.55275E-01   100.05
  -55.00   340.00     -17.67   -7.66   -7.24    0.09870   -73.29  RIGHT     9.28423E-02  -106.50    2.93854E-01    93.39
  -50.00   340.00     -16.33   -6.78   -6.32    0.06247   -71.89  RIGHT     1.08281E-01  -103.24    3.25260E-01    88.74
  -45.00   340.00     -15.48   -6.27   -5.78    0.03419   -70.99  RIGHT     1.19335E-01  -100.32    3.44672E-01    86.02
  -40.00   340.00     -15.09   -6.16   -5.63    0.01325   -70.34  RIGHT     1.24867E-01   -97.23    3.49278E-01    85.16
  -35.00   340.00     -15.11   -6.41   -5.86    0.00144   -69.82  LEFT      1.24667E-01   -93.54    3.39111E-01    86.20
  -30.00   340.00     -15.47   -6.99   -6.42    0.01064   -69.36  LEFT      1.19550E-01   -88.79    3.17202E-01    89.36
  -25.00   340.00     -16.09   -7.79   -7.19    0.01453   -68.97  LEFT      1.11323E-01   -82.53    2.89282E-01    94.98
  -20.00   340.00     -16.80   -8.62   -8.01    0.01321   -68.71  LEFT      1.02531E-01   -74.53    2.63010E-01   103.23
  -15.00   340.00     -17.39   -9.20   -8.58    0.00803   -68.73  LEFT      9.58522E-02   -65.24    2.46116E-01   113.40
  -10.00   340.00     -17.64   -9.31   -8.71    0.00252   -69.05  LEFT      9.30709E-02   -56.25    2.43053E-01   123.31
   -5.00   340.00     -17.53   -8.97   -8.40    0.00025   -69.53  RIGHT     9.43129E-02   -49.89    2.52708E-01   130.15
    0.00   340.00     -17.14   -8.36   -7.82    0.00000   -70.00  LINEAR    9.86442E-02   -47.94    2.71023E-01   132.06
  -90.00   345.00    -999.99 -999.99 -999.99    0.00000     0.00            6.07587E-13    -5.14    3.08980E-12   -32.70
  -85.00   345.00     -39.25  -22.84  -22.74    0.09646    83.36  RIGHT     7.73575E-03  -174.47    5.11666E-02   145.24
  -80.00   345.00     -34.63  -17.28  -17.20    0.11926    86.31  RIGHT     1.31613E-02  -157.87    9.70829E-02   140.08
  -75.00   345.00     -31.14  -14.27  -14.18    0.14328    89.74  RIGHT     1.96806E-02  -139.71    1.37284E-01   132.09
  -70.00   345.00     -27.75  -12.18  -12.06    0.15320   -86.27  RIGHT     2.90686E-02  -125.42    1.74604E-01   122.11
  -65.00   345.00     -24.73  -10.46  -10.30    0.14047   -82.42  RIGHT     4.11742E-02  -115.98    2.12847E-01   111.65
  -60.00   345.00     -22.25   -8.95   -8.75    0.11143   -79.50  RIGHT     5.47600E-02  -109.94    2.53184E-01   102.25
  -55.00   345.00     -20.34   -7.69   -7.46    0.07861   -77.62  RIGHT     6.82041E-02  -105.84    2.92648E-01    94.86
  -50.00   345.00     -18.97   -6.76   -6.51    0.04980   -76.50  RIGHT     7.98637E-02  -102.71    3.25729E-01    89.69
  -45.00   345.00     -18.10   -6.21   -5.94    0.02722   -75.80  RIGHT     8.83490E-02   -99.90    3.47042E-01    86.63
  -40.00   345.00     -17.67   -6.06   -5.77    0.01056   -75.30  RIGHT     9.27687E-02   -96.91    3.53319E-01    85.56
  -35.00   345.00     -17.66   -6.28   -5.98    0.00109   -74.90  LEFT      9.29153E-02   -93.29    3.44333E-01    86.46
  -30.00   345.00     -18.00   -6.83   -6.51    0.00837   -74.55  LEFT      8.93585E-02   -88.60    3.23055E-01    89.53
  -25.00   345.00     -18.59   -7.61   -7.28    0.01148   -74.24  LEFT      8.34245E-02   -82.39    2.95322E-01    95.09
  -20.00   345.00     -19.29   -8.42   -8.08    0.01046   -74.03  LEFT      7.70148E-02   -74.43    2.69011E-01   103.30
  -15.00   345.00     -19.86   -8.99   -8.65    0.00639   -74.03  LEFT      7.21495E-02   -65.17    2.52122E-01   113.44
  -10.00   345.00     -20.09   -9.09   -8.75    0.00204   -74.28  LEFT      7.01904E-02   -56.21    2.49306E-01   123.34
   -5.00   345.00     -19.96   -8.74   -8.42    0.00016   -74.65  RIGHT     7.12526E-02   -49.87    2.59501E-01   130.16
    0.00   345.00     -19.56   -8.12   -7.82    0.00000   -75.00  LINEAR    7.46477E-02   -47.94    2.78589E-01   132.06
  -90.00   350.00    -999.99 -999.99 -999.99    0.00000     0.00            3.92868E-13    -3.94    3.17485E-12   -28.63
  -85.00   350.00     -43.03  -22.62  -22.58    0.05761    85.65  RIGHT     5.00399E-03  -173.29    5.24669E-02   149.30
  -80.00   350.00     -38.41  -17.11  -17.08    0.07384    87.46  RIGHT     8.52374E-03  -156.76    9.89352E-02   144.07
  -75.00   350.00     -34.90  -14.18  -14.15    0.09184    89.58  RIGHT     1.27700E-02  -138.70    1.38608E-01   135.83
  -70.00   350.00     -31.49  -12.18  -12.13    0.10153   -87.84  RIGHT     1.89078E-02  -124.53    1.74604E-01   125.33
  -65.00   350.00     -28.44  -10.51  -10.44    0.09569   -85.23  RIGHT     2.68583E-02  -115.23    2.11552E-01   114.14
  -60.00   350.00     -25.94   -9.01   -8.93    0.07719   -83.17  RIGHT     3.58300E-02  -109.31    2.51394E-01   104.00
  -55.00   350.00     -24.00   -7.73   -7.63    0.05481   -81.83  RIGHT     4.47655E-02  -105.34    2.91355E-01    96.01
  -50.00   350.00     -22.60   -6.77   -6.65    0.03475   -81.04  RIGHT     5.25769E-02  -102.31    3.25619E-01    90.43
  -45.00   350.00     -21.70   -6.18   -6.06    0.01899   -80.55  RIGHT     5.83290E-02   -99.58    3.48349E-01    87.11
  -40.00   350.00     -21.26   -5.99   -5.87    0.00738   -80.22  RIGHT     6.14077E-02   -96.66    3.55906E-01    85.86
  -35.00   350.00     -21.22   -6.19   -6.06    0.00071   -79.95  LEFT      6.16507E-02   -93.10    3.47850E-01    86.66
  -30.00   350.00     -21.54   -6.73   -6.59    0.00577   -79.71  LEFT      5.94170E-02   -88.46    3.27098E-01    89.66
  -25.00   350.00     -22.12   -7.49   -7.34    0.00793   -79.50  LEFT      5.55769E-02   -82.29    2.99553E-01    95.17
  -20.00   350.00     -22.80   -8.29   -8.14    0.00724   -79.36  LEFT      5.13941E-02   -74.36    2.73255E-01   103.35
  -15.00   350.00     -23.36   -8.84   -8.69    0.00444   -79.35  LEFT      4.82210E-02   -65.12    2.56396E-01   113.48
  -10.00   350.00     -23.58   -8.93   -8.78    0.00144   -79.51  LEFT      4.69768E-02   -56.19    2.53777E-01   123.35
   -5.00   350.00     -23.44   -8.58   -8.44    0.00009   -79.76  RIGHT     4.77486E-02   -49.86    2.64375E-01   130.17
    0.00   350.00     -23.03   -7.95   -7.82    0.00000   -80.00  LINEAR    5.00830E-02   -47.94    2.84035E-01   132.06
  -90.00   355.00    -999.99 -999.99 -999.99    0.00000     0.00            1.92719E-13    -3.16    3.23515E-12   -26.16
  -85.00   355.00     -49.22  -22.47  -22.46    0.02679    87.86  RIGHT     2.45531E-03  -172.53    5.33935E-02   151.78
  -80.00   355.00     -44.59  -16.99  -16.99    0.03515    88.71  RIGHT     4.18546E-03  -156.04    1.00294E-01   146.52
  -75.00   355.00     -41.06  -14.12  -14.11    0.04468    89.72  RIGHT     6.27796E-03  -138.05    1.39666E-01   138.17
  -70.00   355.00     -37.64  -12.17  -12.16    0.05045   -89.02  RIGHT     9.30977E-03  -123.97    1.74783E-01   127.38
  -65.00   355.00     -34.58  -10.54  -10.53    0.04841   -87.71  RIGHT     1.32481E-02  -114.75    2.10806E-01   115.75
  -60.00   355.00     -32.06   -9.05   -9.03    0.03949   -86.64  RIGHT     1.77075E-02  -108.92    2.50221E-01   105.13
  -55.00   355.00     -30.11   -7.76   -7.73    0.02817   -85.94  RIGHT     2.21667E-02  -105.02    2.90412E-01    96.75
  -50.00   355.00     -28.69   -6.77   -6.74    0.01788   -85.53  RIGHT     2.60840E-02  -102.06    3.25375E-01    90.90
  -45.00   355.00     -27.78   -6.16   -6.13    0.00976   -85.28  RIGHT     2.89890E-02   -99.39    3.48977E-01    87.41
  -40.00   355.00     -27.31   -5.96   -5.93    0.00380   -85.12  RIGHT     3.05686E-02   -96.51    3.57336E-01    86.05
  -35.00   355.00     -27.27   -6.14   -6.11    0.00035   -84.98  LEFT      3.07346E-02   -92.99    3.49874E-01    86.78
  -30.00   355.00     -27.58   -6.66   -6.63    0.00294   -84.86  LEFT      2.96598E-02   -88.38    3.29466E-01    89.74
  -25.00   355.00     -28.15   -7.42   -7.38    0.00405   -84.75  LEFT      2.77751E-02   -82.23    3.02058E-01    95.23
  -20.00   355.00     -28.82   -8.21   -8.17    0.00370   -84.68  LEFT      2.57113E-02   -74.32    2.75784E-01   103.39
  -15.00   355.00     -29.36   -8.76   -8.72    0.00227   -84.67  LEFT      2.41463E-02   -65.10    2.58953E-01   113.50
  -10.00   355.00     -29.58   -8.84   -8.80    0.00074   -84.76  LEFT      2.35431E-02   -56.17    2.56462E-01   123.36
   -5.00   355.00     -29.43   -8.48   -8.45    0.00004   -84.88  RIGHT     2.39483E-02   -49.85    2.67309E-01   130.17
    0.00   355.00     -29.01   -7.85   -7.82    0.00000   -85.00  LINEAR    2.51371E-02   -47.94    2.87319E-01   132.06
  -90.00   360.00    -999.99 -999.99 -999.99    0.00000     0.00            5.31079E-21  -121.69    3.25692E-12   -25.33
  -85.00   360.00    -999.99  -22.42  -22.42    0.00000    90.00  LINEAR    6.70483E-11    69.19    5.37287E-02   152.61
  -80.00   360.00    -196.09  -16.95  -16.95    0.00000    90.00  LINEAR    1.11267E-10    86.39    1.00792E-01   147.35
  -75.00   360.00    -192.95  -14.09  -14.09    0.00000    90.00  LINEAR    1.59829E-10   105.48    1.40068E-01   138.96
  -70.00   360.00    -190.03  -12.17  -12.17    0.00000    90.00  LINEAR    2.23743E-10   120.94    1.74878E-01   128.09
  -65.00   360.00    -187.56  -10.55  -10.55    0.00000    90.00  LINEAR    2.97036E-10   131.68    2.10567E-01   116.30
  -60.00   360.00    -185.73   -9.07   -9.07    0.00000    90.00  LINEAR    3.67057E-10   139.09    2.49815E-01   105.52
  -55.00   360.00    -184.51   -7.77   -7.77    0.00000    90.00  LINEAR    4.22150E-10   144.53    2.90071E-01    97.01
  -50.00   360.00    -183.87   -6.78   -6.78    0.00000    90.00  LINEAR    4.54647E-10   148.93    3.25263E-01    91.06
  -45.00   360.00    -183.73   -6.16   -6.16    0.00000    90.00  LINEAR    4.61670E-10   152.91    3.49160E-01    87.51
  -40.00   360.00    -184.06   -5.95   -5.95    0.00000    90.00  LINEAR    4.44810E-10   156.96    3.57792E-01    86.12
  -35.00   360.00    -184.78   -6.13   -6.13    0.00000    90.00  LINEAR    4.09160E-10   161.50    3.50534E-01    86.82
  -30.00   360.00    -185.84   -6.64   -6.64    0.00000    90.00  LINEAR    3.62065E-10   167.00    3.30246E-01    89.76
  -25.00   360.00    -187.14   -7.39   -7.39    0.00000    90.00  LINEAR    3.11824E-10   173.90    3.02888E-01    95.24
  -20.00   360.00    -188.51   -8.18   -8.18    0.00000    90.00  LINEAR    2.66375E-10  -177.55    2.76624E-01   103.40
  -15.00   360.00    -189.72   -8.73   -8.73    0.00000    90.00  LINEAR    2.31708E-10  -167.79    2.59805E-01   113.50
  -10.00   360.00    -190.57   -8.81   -8.81    0.00000    90.00  LINEAR    2.10065E-10  -158.42    2.57357E-01   123.37
   -5.00   360.00    -191.02   -8.45   -8.45    0.00000    90.00  LINEAR    1.99471E-10  -151.74    2.68289E-01   130.18
    0.00   360.00    -191.17   -7.82   -7.82    0.00000    90.00  LINEAR    1.96227E-10  -149.53    2.88416E-01   132.06


   AVERAGE POWER GAIN= 1.58174E+00       SOLID ANGLE USED IN AVERAGING=( 2.0000)*PI STERADIANS.








 ***** DATA CARD NO.  5   EN   0    19    73  1003 -9.00000E+01  0.00000E+00  5.00000E+00  5.00000E+00  0.00000E+00  0.00000E+00

 RUN TIME =     0.188
