1



                                 *********************************************

                                    NUMERICAL ELECTROMAGNETICS CODE (NEC-2D)

                                 *********************************************




                                     - - - - COMMENTS - - - -


                          Moxon rectangle by equation as descibed by                                 
                          L.B. Cebik in www.cebik.com/moxon/moxgen.html                              
                          Comparison with model created using MoxGen                                 
                          (www.qsl.net/ac6la/) yields equal results.                                 
                                                                                                     




                                 - - - STRUCTURE SPECIFICATION - - -

                                     COORDINATES MUST BE INPUT IN
                                     METERS OR BE SCALED TO METERS
                                     BEFORE STRUCTURE INPUT IS ENDED


  WIRE                                                                               NO. OF    FIRST  LAST     TAG
  NO.        X1         Y1         Z1          X2         Y2         Z2      RADIUS   SEG.     SEG.   SEG.     NO.
     1    2.55840   -7.72264   20.00000     2.55840    7.72264   20.00000    0.00050     35        1    35       1
     2    0.16848   -7.72264   20.00000     2.55840   -7.72264   20.00000    0.00050      5       36    40       2
     3    2.55840    7.72264   20.00000     0.16848    7.72264   20.00000    0.00050      5       41    45       3
     4   -3.00427   -7.72264   20.00000    -3.00427    7.72264   20.00000    0.00050     35       46    80       4
     5   -0.16848   -7.72264   20.00000    -3.00427   -7.72264   20.00000    0.00050      7       81    87       5
     6   -3.00427    7.72264   20.00000    -0.16848    7.72264   20.00000    0.00050      7       88    94       6

   TOTAL SEGMENTS USED=   94     NO. SEG. IN A SYMMETRIC CELL=   94     SYMMETRY FLAG=  0


         - MULTIPLE WIRE JUNCTIONS -
 JUNCTION    SEGMENTS  (- FOR END 1, + FOR END 2)
  NONE




                                 - - - - SEGMENTATION DATA - - - -

                                        COORDINATES IN METERS

                         I+ AND I- INDICATE THE SEGMENTS BEFORE AND AFTER I


  SEG.   COORDINATES OF SEG. CENTER     SEG.     ORIENTATION ANGLES    WIRE    CONNECTION DATA   TAG
  NO.       X         Y         Z       LENGTH     ALPHA     BETA      RADIUS    I-   I    I+    NO.
     1   2.55840  -7.50199  20.00000   0.44129    0.00000  90.00000   0.00050    40    1    2      1
     2   2.55840  -7.06070  20.00000   0.44129    0.00000  90.00000   0.00050     1    2    3      1
     3   2.55840  -6.61940  20.00000   0.44129    0.00000  90.00000   0.00050     2    3    4      1
     4   2.55840  -6.17811  20.00000   0.44129    0.00000  90.00000   0.00050     3    4    5      1
     5   2.55840  -5.73682  20.00000   0.44129    0.00000  90.00000   0.00050     4    5    6      1
     6   2.55840  -5.29552  20.00000   0.44129    0.00000  90.00000   0.00050     5    6    7      1
     7   2.55840  -4.85423  20.00000   0.44129    0.00000  90.00000   0.00050     6    7    8      1
     8   2.55840  -4.41293  20.00000   0.44129    0.00000  90.00000   0.00050     7    8    9      1
     9   2.55840  -3.97164  20.00000   0.44129    0.00000  90.00000   0.00050     8    9   10      1
    10   2.55840  -3.53035  20.00000   0.44129    0.00000  90.00000   0.00050     9   10   11      1
    11   2.55840  -3.08905  20.00000   0.44129    0.00000  90.00000   0.00050    10   11   12      1
    12   2.55840  -2.64776  20.00000   0.44129    0.00000  90.00000   0.00050    11   12   13      1
    13   2.55840  -2.20647  20.00000   0.44129    0.00000  90.00000   0.00050    12   13   14      1
    14   2.55840  -1.76517  20.00000   0.44129    0.00000  90.00000   0.00050    13   14   15      1
    15   2.55840  -1.32388  20.00000   0.44129    0.00000  90.00000   0.00050    14   15   16      1
    16   2.55840  -0.88259  20.00000   0.44129    0.00000  90.00000   0.00050    15   16   17      1
    17   2.55840  -0.44129  20.00000   0.44129    0.00000  90.00000   0.00050    16   17   18      1
    18   2.55840   0.00000  20.00000   0.44129    0.00000  90.00000   0.00050    17   18   19      1
    19   2.55840   0.44129  20.00000   0.44129    0.00000  90.00000   0.00050    18   19   20      1
    20   2.55840   0.88259  20.00000   0.44129    0.00000  90.00000   0.00050    19   20   21      1
    21   2.55840   1.32388  20.00000   0.44129    0.00000  90.00000   0.00050    20   21   22      1
    22   2.55840   1.76517  20.00000   0.44129    0.00000  90.00000   0.00050    21   22   23      1
    23   2.55840   2.20647  20.00000   0.44129    0.00000  90.00000   0.00050    22   23   24      1
    24   2.55840   2.64776  20.00000   0.44129    0.00000  90.00000   0.00050    23   24   25      1
    25   2.55840   3.08905  20.00000   0.44129    0.00000  90.00000   0.00050    24   25   26      1
    26   2.55840   3.53035  20.00000   0.44129    0.00000  90.00000   0.00050    25   26   27      1
    27   2.55840   3.97164  20.00000   0.44129    0.00000  90.00000   0.00050    26   27   28      1
    28   2.55840   4.41293  20.00000   0.44129    0.00000  90.00000   0.00050    27   28   29      1
    29   2.55840   4.85423  20.00000   0.44129    0.00000  90.00000   0.00050    28   29   30      1
    30   2.55840   5.29552  20.00000   0.44129    0.00000  90.00000   0.00050    29   30   31      1
    31   2.55840   5.73682  20.00000   0.44129    0.00000  90.00000   0.00050    30   31   32      1
    32   2.55840   6.17811  20.00000   0.44129    0.00000  90.00000   0.00050    31   32   33      1
    33   2.55840   6.61940  20.00000   0.44129    0.00000  90.00000   0.00050    32   33   34      1
    34   2.55840   7.06070  20.00000   0.44129    0.00000  90.00000   0.00050    33   34   35      1
    35   2.55840   7.50199  20.00000   0.44129    0.00000  90.00000   0.00050    34   35   41      1
    36   0.40747  -7.72264  20.00000   0.47799    0.00000   0.00000   0.00050     0   36   37      2
    37   0.88545  -7.72264  20.00000   0.47799    0.00000   0.00000   0.00050    36   37   38      2
    38   1.36344  -7.72264  20.00000   0.47799    0.00000   0.00000   0.00050    37   38   39      2
    39   1.84142  -7.72264  20.00000   0.47799    0.00000   0.00000   0.00050    38   39   40      2
    40   2.31941  -7.72264  20.00000   0.47799    0.00000   0.00000   0.00050    39   40    1      2
    41   2.31941   7.72264  20.00000   0.47799    0.00000 180.00000   0.00050    35   41   42      3
    42   1.84142   7.72264  20.00000   0.47799    0.00000 180.00000   0.00050    41   42   43      3
    43   1.36344   7.72264  20.00000   0.47799    0.00000 180.00000   0.00050    42   43   44      3
    44   0.88545   7.72264  20.00000   0.47799    0.00000 180.00000   0.00050    43   44   45      3
    45   0.40747   7.72264  20.00000   0.47799    0.00000 180.00000   0.00050    44   45    0      3
    46  -3.00427  -7.50199  20.00000   0.44129    0.00000  90.00000   0.00050    87   46   47      4
    47  -3.00427  -7.06070  20.00000   0.44129    0.00000  90.00000   0.00050    46   47   48      4
    48  -3.00427  -6.61940  20.00000   0.44129    0.00000  90.00000   0.00050    47   48   49      4
    49  -3.00427  -6.17811  20.00000   0.44129    0.00000  90.00000   0.00050    48   49   50      4
    50  -3.00427  -5.73682  20.00000   0.44129    0.00000  90.00000   0.00050    49   50   51      4
    51  -3.00427  -5.29552  20.00000   0.44129    0.00000  90.00000   0.00050    50   51   52      4
    52  -3.00427  -4.85423  20.00000   0.44129    0.00000  90.00000   0.00050    51   52   53      4
    53  -3.00427  -4.41293  20.00000   0.44129    0.00000  90.00000   0.00050    52   53   54      4
    54  -3.00427  -3.97164  20.00000   0.44129    0.00000  90.00000   0.00050    53   54   55      4
    55  -3.00427  -3.53035  20.00000   0.44129    0.00000  90.00000   0.00050    54   55   56      4
    56  -3.00427  -3.08905  20.00000   0.44129    0.00000  90.00000   0.00050    55   56   57      4
    57  -3.00427  -2.64776  20.00000   0.44129    0.00000  90.00000   0.00050    56   57   58      4
    58  -3.00427  -2.20647  20.00000   0.44129    0.00000  90.00000   0.00050    57   58   59      4
    59  -3.00427  -1.76517  20.00000   0.44129    0.00000  90.00000   0.00050    58   59   60      4
    60  -3.00427  -1.32388  20.00000   0.44129    0.00000  90.00000   0.00050    59   60   61      4
    61  -3.00427  -0.88259  20.00000   0.44129    0.00000  90.00000   0.00050    60   61   62      4
    62  -3.00427  -0.44129  20.00000   0.44129    0.00000  90.00000   0.00050    61   62   63      4
    63  -3.00427   0.00000  20.00000   0.44129    0.00000  90.00000   0.00050    62   63   64      4
    64  -3.00427   0.44129  20.00000   0.44129    0.00000  90.00000   0.00050    63   64   65      4
    65  -3.00427   0.88259  20.00000   0.44129    0.00000  90.00000   0.00050    64   65   66      4
    66  -3.00427   1.32388  20.00000   0.44129    0.00000  90.00000   0.00050    65   66   67      4
    67  -3.00427   1.76517  20.00000   0.44129    0.00000  90.00000   0.00050    66   67   68      4
    68  -3.00427   2.20647  20.00000   0.44129    0.00000  90.00000   0.00050    67   68   69      4
    69  -3.00427   2.64776  20.00000   0.44129    0.00000  90.00000   0.00050    68   69   70      4
    70  -3.00427   3.08905  20.00000   0.44129    0.00000  90.00000   0.00050    69   70   71      4
    71  -3.00427   3.53035  20.00000   0.44129    0.00000  90.00000   0.00050    70   71   72      4
    72  -3.00427   3.97164  20.00000   0.44129    0.00000  90.00000   0.00050    71   72   73      4
    73  -3.00427   4.41293  20.00000   0.44129    0.00000  90.00000   0.00050    72   73   74      4
    74  -3.00427   4.85423  20.00000   0.44129    0.00000  90.00000   0.00050    73   74   75      4
    75  -3.00427   5.29552  20.00000   0.44129    0.00000  90.00000   0.00050    74   75   76      4
    76  -3.00427   5.73682  20.00000   0.44129    0.00000  90.00000   0.00050    75   76   77      4
    77  -3.00427   6.17811  20.00000   0.44129    0.00000  90.00000   0.00050    76   77   78      4
    78  -3.00427   6.61940  20.00000   0.44129    0.00000  90.00000   0.00050    77   78   79      4
    79  -3.00427   7.06070  20.00000   0.44129    0.00000  90.00000   0.00050    78   79   80      4
    80  -3.00427   7.50199  20.00000   0.44129    0.00000  90.00000   0.00050    79   80   88      4
    81  -0.37103  -7.72264  20.00000   0.40511    0.00000 180.00000   0.00050     0   81   82      5
    82  -0.77615  -7.72264  20.00000   0.40511    0.00000 180.00000   0.00050    81   82   83      5
    83  -1.18126  -7.72264  20.00000   0.40511    0.00000 180.00000   0.00050    82   83   84      5
    84  -1.58637  -7.72264  20.00000   0.40511    0.00000 180.00000   0.00050    83   84   85      5
    85  -1.99148  -7.72264  20.00000   0.40511    0.00000 180.00000   0.00050    84   85   86      5
    86  -2.39660  -7.72264  20.00000   0.40511    0.00000 180.00000   0.00050    85   86   87      5
    87  -2.80171  -7.72264  20.00000   0.40511    0.00000 180.00000   0.00050    86   87   46      5
    88  -2.80171   7.72264  20.00000   0.40511    0.00000   0.00000   0.00050    80   88   89      6
    89  -2.39660   7.72264  20.00000   0.40511    0.00000   0.00000   0.00050    88   89   90      6
    90  -1.99148   7.72264  20.00000   0.40511    0.00000   0.00000   0.00050    89   90   91      6
    91  -1.58637   7.72264  20.00000   0.40511    0.00000   0.00000   0.00050    90   91   92      6
    92  -1.18126   7.72264  20.00000   0.40511    0.00000   0.00000   0.00050    91   92   93      6
    93  -0.77615   7.72264  20.00000   0.40511    0.00000   0.00000   0.00050    92   93   94      6
    94  -0.37103   7.72264  20.00000   0.40511    0.00000   0.00000   0.00050    93   94    0      6






 ***** DATA CARD NO.  1   FR   0     1     0     0  7.10000E+00  0.00000E+00  0.00000E+00  0.00000E+00  0.00000E+00  0.00000E+00
 ***** DATA CARD NO.  2   GN   2     0     0     0  1.30000E+01  5.00000E-03  0.00000E+00  0.00000E+00  0.00000E+00  0.00000E+00
 ***** DATA CARD NO.  3   EX   0     1    18     1  0.00000E+00  0.00000E+00  0.00000E+00  0.00000E+00  0.00000E+00  0.00000E+00
 ***** DATA CARD NO.  4   RP   0    91   361  1003 -9.00000E+01  0.00000E+00  1.00000E+00  1.00000E+00  0.00000E+00  0.00000E+00




                                 - - - - - - FREQUENCY - - - - - -

                                    FREQUENCY= 7.1000E+00 MHZ
                                    WAVELENGTH= 4.2225E+01 METERS




                    APPROXIMATE INTEGRATION EMPLOYED FOR SEGMENTS MORE THAN   1.000 WAVELENGTHS APART



                               - - - STRUCTURE IMPEDANCE LOADING - - -

                                   THIS STRUCTURE IS NOT LOADED



                                  - - - ANTENNA ENVIRONMENT - - -

                                        FINITE GROUND.  SOMMERFELD SOLUTION
                                        RELATIVE DIELECTRIC CONST.= 13.000
                                        CONDUCTIVITY= 5.000E-03 MHOS/METER
                                        COMPLEX DIELECTRIC CONSTANT= 1.30000E+01-1.26592E+01



                                - - - MATRIX TIMING - - -

                        FILL=    0.031 SEC.,  FACTOR=    0.000 SEC.



                                          - - - ANTENNA INPUT PARAMETERS - - -

   TAG   SEG.    VOLTAGE (VOLTS)         CURRENT (AMPS)         IMPEDANCE (OHMS)        ADMITTANCE (MHOS)      POWER
   NO.   NO.    REAL        IMAG.       REAL        IMAG.       REAL        IMAG.       REAL        IMAG.     (WATTS)
     1    18 1.00000E+00 0.00000E+00 1.67961E-02-1.84245E-03 5.88298E+01 6.45334E+00 1.67961E-02-1.84245E-03 8.39804E-03



                             - - - CURRENTS AND LOCATION - - -

                                 DISTANCES IN WAVELENGTHS


  SEG.  TAG    COORD. OF SEG. CENTER     SEG.            - - - CURRENT (AMPS) - - -
  NO.   NO.     X        Y        Z      LENGTH     REAL        IMAG.       MAG.        PHASE
     1    1   0.0606  -0.1777   0.4736  0.01045   6.9838E-03 -1.1481E-03  7.0776E-03   -9.336
     2    1   0.0606  -0.1672   0.4736  0.01045   7.9918E-03 -1.2737E-03  8.0927E-03   -9.056
     3    1   0.0606  -0.1568   0.4736  0.01045   8.9663E-03 -1.3929E-03  9.0739E-03   -8.830
     4    1   0.0606  -0.1463   0.4736  0.01045   9.9016E-03 -1.5042E-03  1.0015E-02   -8.638
     5    1   0.0606  -0.1359   0.4736  0.01045   1.0793E-02 -1.6064E-03  1.0911E-02   -8.466
     6    1   0.0606  -0.1254   0.4736  0.01045   1.1634E-02 -1.6987E-03  1.1758E-02   -8.307
     7    1   0.0606  -0.1150   0.4736  0.01045   1.2423E-02 -1.7802E-03  1.2550E-02   -8.155
     8    1   0.0606  -0.1045   0.4736  0.01045   1.3155E-02 -1.8503E-03  1.3285E-02   -8.006
     9    1   0.0606  -0.0941   0.4736  0.01045   1.3827E-02 -1.9084E-03  1.3958E-02   -7.858
    10    1   0.0606  -0.0836   0.4736  0.01045   1.4436E-02 -1.9542E-03  1.4568E-02   -7.709
    11    1   0.0606  -0.0732   0.4736  0.01045   1.4980E-02 -1.9873E-03  1.5111E-02   -7.557
    12    1   0.0606  -0.0627   0.4736  0.01045   1.5456E-02 -2.0074E-03  1.5586E-02   -7.400
    13    1   0.0606  -0.0523   0.4736  0.01045   1.5862E-02 -2.0141E-03  1.5989E-02   -7.237
    14    1   0.0606  -0.0418   0.4736  0.01045   1.6196E-02 -2.0071E-03  1.6320E-02   -7.064
    15    1   0.0606  -0.0314   0.4736  0.01045   1.6458E-02 -1.9859E-03  1.6577E-02   -6.881
    16    1   0.0606  -0.0209   0.4736  0.01045   1.6645E-02 -1.9499E-03  1.6759E-02   -6.681
    17    1   0.0606  -0.0105   0.4736  0.01045   1.6758E-02 -1.8966E-03  1.6865E-02   -6.457
    18    1   0.0606   0.0000   0.4736  0.01045   1.6796E-02 -1.8424E-03  1.6897E-02   -6.260
    19    1   0.0606   0.0105   0.4736  0.01045   1.6758E-02 -1.8966E-03  1.6865E-02   -6.457
    20    1   0.0606   0.0209   0.4736  0.01045   1.6645E-02 -1.9499E-03  1.6759E-02   -6.681
    21    1   0.0606   0.0314   0.4736  0.01045   1.6458E-02 -1.9859E-03  1.6577E-02   -6.881
    22    1   0.0606   0.0418   0.4736  0.01045   1.6196E-02 -2.0071E-03  1.6320E-02   -7.064
    23    1   0.0606   0.0523   0.4736  0.01045   1.5862E-02 -2.0141E-03  1.5989E-02   -7.237
    24    1   0.0606   0.0627   0.4736  0.01045   1.5456E-02 -2.0074E-03  1.5586E-02   -7.400
    25    1   0.0606   0.0732   0.4736  0.01045   1.4980E-02 -1.9873E-03  1.5111E-02   -7.557
    26    1   0.0606   0.0836   0.4736  0.01045   1.4436E-02 -1.9542E-03  1.4568E-02   -7.709
    27    1   0.0606   0.0941   0.4736  0.01045   1.3827E-02 -1.9084E-03  1.3958E-02   -7.858
    28    1   0.0606   0.1045   0.4736  0.01045   1.3155E-02 -1.8503E-03  1.3285E-02   -8.006
    29    1   0.0606   0.1150   0.4736  0.01045   1.2423E-02 -1.7802E-03  1.2550E-02   -8.155
    30    1   0.0606   0.1254   0.4736  0.01045   1.1634E-02 -1.6987E-03  1.1758E-02   -8.307
    31    1   0.0606   0.1359   0.4736  0.01045   1.0793E-02 -1.6064E-03  1.0911E-02   -8.466
    32    1   0.0606   0.1463   0.4736  0.01045   9.9016E-03 -1.5042E-03  1.0015E-02   -8.638
    33    1   0.0606   0.1568   0.4736  0.01045   8.9663E-03 -1.3929E-03  9.0739E-03   -8.830
    34    1   0.0606   0.1672   0.4736  0.01045   7.9918E-03 -1.2737E-03  8.0927E-03   -9.056
    35    1   0.0606   0.1777   0.4736  0.01045   6.9838E-03 -1.1481E-03  7.0776E-03   -9.336
    36    2   0.0096  -0.1829   0.4736  0.01132   7.9949E-04 -1.7616E-04  8.1867E-04  -12.426
    37    2   0.0210  -0.1829   0.4736  0.01132   2.2040E-03 -4.4571E-04  2.2486E-03  -11.433
    38    2   0.0323  -0.1829   0.4736  0.01132   3.4974E-03 -6.6216E-04  3.5595E-03  -10.721
    39    2   0.0436  -0.1829   0.4736  0.01132   4.7267E-03 -8.4791E-04  4.8021E-03  -10.170
    40    2   0.0549  -0.1829   0.4736  0.01132   5.9015E-03 -1.0101E-03  5.9874E-03   -9.713
    41    3   0.0549   0.1829   0.4736  0.01132   5.9015E-03 -1.0101E-03  5.9874E-03   -9.713
    42    3   0.0436   0.1829   0.4736  0.01132   4.7267E-03 -8.4791E-04  4.8021E-03  -10.170
    43    3   0.0323   0.1829   0.4736  0.01132   3.4974E-03 -6.6216E-04  3.5595E-03  -10.721
    44    3   0.0210   0.1829   0.4736  0.01132   2.2040E-03 -4.4571E-04  2.2486E-03  -11.433
    45    3   0.0096   0.1829   0.4736  0.01132   7.9949E-04 -1.7616E-04  8.1867E-04  -12.426
    46    4  -0.0711  -0.1777   0.4736  0.01045  -5.0463E-03  6.8401E-03  8.5001E-03  126.418
    47    4  -0.0711  -0.1672   0.4736  0.01045  -5.6275E-03  7.6807E-03  9.5216E-03  126.230
    48    4  -0.0711  -0.1568   0.4736  0.01045  -6.1911E-03  8.4922E-03  1.0509E-02  126.093
    49    4  -0.0711  -0.1463   0.4736  0.01045  -6.7333E-03  9.2705E-03  1.1458E-02  125.991
    50    4  -0.0711  -0.1359   0.4736  0.01045  -7.2508E-03  1.0011E-02  1.2361E-02  125.914
    51    4  -0.0711  -0.1254   0.4736  0.01045  -7.7408E-03  1.0711E-02  1.3216E-02  125.854
    52    4  -0.0711  -0.1150   0.4736  0.01045  -8.2006E-03  1.1367E-02  1.4017E-02  125.807
    53    4  -0.0711  -0.1045   0.4736  0.01045  -8.6279E-03  1.1976E-02  1.4760E-02  125.770
    54    4  -0.0711  -0.0941   0.4736  0.01045  -9.0206E-03  1.2535E-02  1.5443E-02  125.740
    55    4  -0.0711  -0.0836   0.4736  0.01045  -9.3769E-03  1.3041E-02  1.6062E-02  125.717
    56    4  -0.0711  -0.0732   0.4736  0.01045  -9.6950E-03  1.3493E-02  1.6615E-02  125.697
    57    4  -0.0711  -0.0627   0.4736  0.01045  -9.9737E-03  1.3889E-02  1.7099E-02  125.682
    58    4  -0.0711  -0.0523   0.4736  0.01045  -1.0212E-02  1.4226E-02  1.7512E-02  125.670
    59    4  -0.0711  -0.0418   0.4736  0.01045  -1.0408E-02  1.4505E-02  1.7852E-02  125.661
    60    4  -0.0711  -0.0314   0.4736  0.01045  -1.0561E-02  1.4722E-02  1.8118E-02  125.654
    61    4  -0.0711  -0.0209   0.4736  0.01045  -1.0671E-02  1.4878E-02  1.8309E-02  125.649
    62    4  -0.0711  -0.0105   0.4736  0.01045  -1.0737E-02  1.4972E-02  1.8424E-02  125.647
    63    4  -0.0711   0.0000   0.4736  0.01045  -1.0759E-02  1.5003E-02  1.8462E-02  125.646
    64    4  -0.0711   0.0105   0.4736  0.01045  -1.0737E-02  1.4972E-02  1.8424E-02  125.647
    65    4  -0.0711   0.0209   0.4736  0.01045  -1.0671E-02  1.4878E-02  1.8309E-02  125.649
    66    4  -0.0711   0.0314   0.4736  0.01045  -1.0561E-02  1.4722E-02  1.8118E-02  125.654
    67    4  -0.0711   0.0418   0.4736  0.01045  -1.0408E-02  1.4505E-02  1.7852E-02  125.661
    68    4  -0.0711   0.0523   0.4736  0.01045  -1.0212E-02  1.4226E-02  1.7512E-02  125.670
    69    4  -0.0711   0.0627   0.4736  0.01045  -9.9737E-03  1.3889E-02  1.7099E-02  125.682
    70    4  -0.0711   0.0732   0.4736  0.01045  -9.6950E-03  1.3493E-02  1.6615E-02  125.697
    71    4  -0.0711   0.0836   0.4736  0.01045  -9.3769E-03  1.3041E-02  1.6062E-02  125.717
    72    4  -0.0711   0.0941   0.4736  0.01045  -9.0206E-03  1.2535E-02  1.5443E-02  125.740
    73    4  -0.0711   0.1045   0.4736  0.01045  -8.6279E-03  1.1976E-02  1.4760E-02  125.770
    74    4  -0.0711   0.1150   0.4736  0.01045  -8.2006E-03  1.1367E-02  1.4017E-02  125.807
    75    4  -0.0711   0.1254   0.4736  0.01045  -7.7408E-03  1.0711E-02  1.3216E-02  125.854
    76    4  -0.0711   0.1359   0.4736  0.01045  -7.2508E-03  1.0011E-02  1.2361E-02  125.914
    77    4  -0.0711   0.1463   0.4736  0.01045  -6.7333E-03  9.2705E-03  1.1458E-02  125.991
    78    4  -0.0711   0.1568   0.4736  0.01045  -6.1911E-03  8.4922E-03  1.0509E-02  126.093
    79    4  -0.0711   0.1672   0.4736  0.01045  -5.6275E-03  7.6807E-03  9.5216E-03  126.230
    80    4  -0.0711   0.1777   0.4736  0.01045  -5.0463E-03  6.8401E-03  8.5001E-03  126.418
    81    5  -0.0088  -0.1829   0.4736  0.00959  -4.6843E-04  5.6993E-04  7.3773E-04  129.417
    82    5  -0.0184  -0.1829   0.4736  0.00959  -1.2669E-03  1.5861E-03  2.0299E-03  128.617
    83    5  -0.0280  -0.1829   0.4736  0.00959  -1.9840E-03  2.5355E-03  3.2195E-03  128.043
    84    5  -0.0376  -0.1829   0.4736  0.00959  -2.6557E-03  3.4484E-03  4.3525E-03  127.601
    85    5  -0.0472  -0.1829   0.4736  0.00959  -3.2921E-03  4.3310E-03  5.4402E-03  127.240
    86    5  -0.0568  -0.1829   0.4736  0.00959  -3.8975E-03  5.1847E-03  6.4863E-03  126.933
    87    5  -0.0664  -0.1829   0.4736  0.00959  -4.4733E-03  6.0094E-03  7.4916E-03  126.664
    88    6  -0.0664   0.1829   0.4736  0.00959  -4.4733E-03  6.0094E-03  7.4916E-03  126.664
    89    6  -0.0568   0.1829   0.4736  0.00959  -3.8975E-03  5.1847E-03  6.4863E-03  126.933
    90    6  -0.0472   0.1829   0.4736  0.00959  -3.2921E-03  4.3310E-03  5.4402E-03  127.240
    91    6  -0.0376   0.1829   0.4736  0.00959  -2.6557E-03  3.4484E-03  4.3525E-03  127.601
    92    6  -0.0280   0.1829   0.4736  0.00959  -1.9840E-03  2.5355E-03  3.2195E-03  128.043
    93    6  -0.0184   0.1829   0.4736  0.00959  -1.2669E-03  1.5861E-03  2.0299E-03  128.617
    94    6  -0.0088   0.1829   0.4736  0.00959  -4.6843E-04  5.6993E-04  7.3773E-04  129.417



                                        - - - POWER BUDGET - - -

                                           INPUT POWER   = 8.3980E-03 WATTS
                                           RADIATED POWER= 8.3980E-03 WATTS
                                           STRUCTURE LOSS= 0.0000E+00 WATTS
                                           NETWORK LOSS  = 0.0000E+00 WATTS
                                           EFFICIENCY    = 100.00 PERCENT



                                                - - - RADIATION PATTERNS - - -

  - - ANGLES - -           - POWER GAINS -       - - - POLARIZATION - - -    - - - E(THETA) - - -    - - - E(PHI) - - -
  THETA     PHI        VERT.   HOR.    TOTAL      AXIAL     TILT   SENSE     MAGNITUDE    PHASE      MAGNITUDE    PHASE 
 DEGREES  DEGREES       DB      DB      DB        RATIO     DEG.              VOLTS/M    DEGREES      VOLTS/M    DEGREES
  -90.00     0.00    -999.99 -999.99 -999.99    0.00000     0.00            5.28935E-21  -121.27    3.25719E-12   -25.34
  -89.00     0.00    -999.99  -36.12  -36.12    0.00000   -90.00  LINEAR    1.68881E-11    60.39    1.10883E-02   154.51
  -88.00     0.00    -999.99  -30.15  -30.15    0.00000   -90.00  LINEAR    3.16612E-11    62.29    2.20464E-02   154.23
  -87.00     0.00    -999.99  -26.69  -26.69    0.00000    90.00  LINEAR    4.46933E-11    64.46    3.28316E-02   153.81
  -86.00     0.00    -999.99  -24.27  -24.27    0.00000    90.00  LINEAR    5.63038E-11    66.90    4.34042E-02   153.28
  -85.00     0.00    -999.99  -22.42  -22.42    0.00000    90.00  LINEAR    6.67775E-11    69.62    5.37287E-02   152.61
  -84.00     0.00    -199.36  -20.93  -20.93    0.00000    90.00  LINEAR    7.63771E-11    72.61    6.37747E-02   151.82
  -83.00     0.00    -198.40  -19.69  -19.69    0.00000    90.00  LINEAR    8.53511E-11    75.87    7.35178E-02   150.89
  -82.00     0.00    -197.56  -18.64  -18.64    0.00000    90.00  LINEAR    9.39359E-11    79.35    8.29405E-02   149.84
  -81.00     0.00    -196.82  -17.74  -17.74    0.00000    90.00  LINEAR    1.02355E-10    83.02    9.20325E-02   148.66
  -80.00     0.00    -196.13  -16.95  -16.95    0.00000    90.00  LINEAR    1.10817E-10    86.83    1.00792E-01   147.35
  -79.00     0.00    -195.47  -16.25  -16.25    0.00000    90.00  LINEAR    1.19505E-10    90.72    1.09223E-01   145.91
  -78.00     0.00    -194.84  -15.63  -15.63    0.00000    90.00  LINEAR    1.28578E-10    94.63    1.17342E-01   144.35
  -77.00     0.00    -194.21  -15.07  -15.07    0.00000    90.00  LINEAR    1.38161E-10    98.51    1.25168E-01   142.67
  -76.00     0.00    -193.59  -14.56  -14.56    0.00000    90.00  LINEAR    1.48343E-10   102.29    1.32732E-01   140.87
  -75.00     0.00    -192.98  -14.09  -14.09    0.00000    90.00  LINEAR    1.59179E-10   105.95    1.40068E-01   138.96
  -74.00     0.00    -192.38  -13.66  -13.66    0.00000    90.00  LINEAR    1.70686E-10   109.44    1.47218E-01   136.95
  -73.00     0.00    -191.78  -13.26  -13.26    0.00000    90.00  LINEAR    1.82854E-10   112.74    1.54226E-01   134.84
  -72.00     0.00    -191.19  -12.88  -12.88    0.00000    90.00  LINEAR    1.95644E-10   115.84    1.61140E-01   132.65
  -71.00     0.00    -190.62  -12.51  -12.51    0.00000    90.00  LINEAR    2.08994E-10   118.74    1.68008E-01   130.40
  -70.00     0.00    -190.06  -12.17  -12.17    0.00000    90.00  LINEAR    2.22826E-10   121.44    1.74878E-01   128.09
  -69.00     0.00    -189.52  -11.83  -11.83    0.00000    90.00  LINEAR    2.37050E-10   123.94    1.81792E-01   125.74
  -68.00     0.00    -189.01  -11.50  -11.50    0.00000    90.00  LINEAR    2.51567E-10   126.26    1.88790E-01   123.37
  -67.00     0.00    -188.51  -11.18  -11.18    0.00000    90.00  LINEAR    2.66271E-10   128.40    1.95904E-01   121.00
  -66.00     0.00    -188.04  -10.86  -10.86    0.00000    90.00  LINEAR    2.81054E-10   130.39    2.03158E-01   118.63
  -65.00     0.00    -187.60  -10.55  -10.55    0.00000    90.00  LINEAR    2.95808E-10   132.23    2.10567E-01   116.30
  -64.00     0.00    -187.18  -10.25  -10.25    0.00000    90.00  LINEAR    3.10427E-10   133.94    2.18139E-01   114.01
  -63.00     0.00    -186.79   -9.94   -9.94    0.00000    90.00  LINEAR    3.24805E-10   135.52    2.25867E-01   111.77
  -62.00     0.00    -186.42   -9.65   -9.65    0.00000    90.00  LINEAR    3.38844E-10   137.00    2.33739E-01   109.61
  -61.00     0.00    -186.08   -9.35   -9.35    0.00000    90.00  LINEAR    3.52446E-10   138.39    2.41732E-01   107.52
  -60.00     0.00    -185.76   -9.07   -9.07    0.00000    90.00  LINEAR    3.65523E-10   139.69    2.49815E-01   105.52
  -59.00     0.00    -185.47   -8.79   -8.79    0.00000    90.00  LINEAR    3.77992E-10   140.91    2.57951E-01   103.62
  -58.00     0.00    -185.20   -8.52   -8.52    0.00000    90.00  LINEAR    3.89776E-10   142.06    2.66094E-01   101.81
  -57.00     0.00    -184.96   -8.26   -8.26    0.00000    90.00  LINEAR    4.00805E-10   143.15    2.74197E-01   100.11
  -56.00     0.00    -184.74   -8.01   -8.01    0.00000    90.00  LINEAR    4.11019E-10   144.19    2.82208E-01    98.51
  -55.00     0.00    -184.55   -7.77   -7.77    0.00000    90.00  LINEAR    4.20362E-10   145.19    2.90071E-01    97.01
  -54.00     0.00    -184.38   -7.54   -7.54    0.00000    90.00  LINEAR    4.28790E-10   146.14    2.97731E-01    95.62
  -53.00     0.00    -184.23   -7.33   -7.33    0.00000    90.00  LINEAR    4.36263E-10   147.06    3.05134E-01    94.33
  -52.00     0.00    -184.10   -7.13   -7.13    0.00000    90.00  LINEAR    4.42752E-10   147.95    3.12224E-01    93.14
  -51.00     0.00    -183.99   -6.95   -6.95    0.00000    90.00  LINEAR    4.48233E-10   148.81    3.18951E-01    92.05
  -50.00     0.00    -183.90   -6.78   -6.78    0.00000    90.00  LINEAR    4.52692E-10   149.66    3.25263E-01    91.06
  -49.00     0.00    -183.84   -6.62   -6.62    0.00000    90.00  LINEAR    4.56122E-10   150.48    3.31116E-01    90.17
  -48.00     0.00    -183.79   -6.48   -6.48    0.00000    90.00  LINEAR    4.58523E-10   151.30    3.36468E-01    89.37
  -47.00     0.00    -183.77   -6.36   -6.36    0.00000    90.00  LINEAR    4.59900E-10   152.11    3.41280E-01    88.66
  -46.00     0.00    -183.76   -6.25   -6.25    0.00000    90.00  LINEAR    4.60270E-10   152.91    3.45519E-01    88.04
  -45.00     0.00    -183.77   -6.16   -6.16    0.00000    90.00  LINEAR    4.59650E-10   153.72    3.49160E-01    87.51
  -44.00     0.00    -183.80   -6.09   -6.09    0.00000    90.00  LINEAR    4.58068E-10   154.52    3.52178E-01    87.06
  -43.00     0.00    -183.85   -6.03   -6.03    0.00000    90.00  LINEAR    4.55555E-10   155.33    3.54559E-01    86.70
  -42.00     0.00    -183.91   -5.98   -5.98    0.00000    90.00  LINEAR    4.52148E-10   156.16    3.56290E-01    86.42
  -41.00     0.00    -184.00   -5.96   -5.96    0.00000    90.00  LINEAR    4.47889E-10   156.99    3.57368E-01    86.23
  -40.00     0.00    -184.10   -5.95   -5.95    0.00000    90.00  LINEAR    4.42825E-10   157.84    3.57792E-01    86.12
  -39.00     0.00    -184.21   -5.95   -5.95    0.00000    90.00  LINEAR    4.37005E-10   158.72    3.57569E-01    86.09
  -38.00     0.00    -184.34   -5.97   -5.97    0.00000    90.00  LINEAR    4.30484E-10   159.61    3.56711E-01    86.14
  -37.00     0.00    -184.49   -6.01   -6.01    0.00000    90.00  LINEAR    4.23318E-10   160.53    3.55236E-01    86.28
  -36.00     0.00    -184.65   -6.06   -6.06    0.00000    90.00  LINEAR    4.15567E-10   161.49    3.53167E-01    86.51
  -35.00     0.00    -184.82   -6.13   -6.13    0.00000    90.00  LINEAR    4.07294E-10   162.47    3.50534E-01    86.82
  -34.00     0.00    -185.01   -6.20   -6.20    0.00000    90.00  LINEAR    3.98562E-10   163.50    3.47369E-01    87.22
  -33.00     0.00    -185.21   -6.30   -6.30    0.00000    90.00  LINEAR    3.89437E-10   164.57    3.43712E-01    87.72
  -32.00     0.00    -185.42   -6.40   -6.40    0.00000    90.00  LINEAR    3.79986E-10   165.68    3.39606E-01    88.30
  -31.00     0.00    -185.65   -6.52   -6.52    0.00000    90.00  LINEAR    3.70276E-10   166.85    3.35100E-01    88.98
  -30.00     0.00    -185.89   -6.64   -6.64    0.00000    90.00  LINEAR    3.60374E-10   168.06    3.30246E-01    89.76
  -29.00     0.00    -186.13   -6.78   -6.78    0.00000    90.00  LINEAR    3.50348E-10   169.34    3.25103E-01    90.65
  -28.00     0.00    -186.38   -6.92   -6.92    0.00000    90.00  LINEAR    3.40265E-10   170.67    3.19729E-01    91.63
  -27.00     0.00    -186.64   -7.08   -7.08    0.00000    90.00  LINEAR    3.30192E-10   172.07    3.14191E-01    92.73
  -26.00     0.00    -186.91   -7.23   -7.23    0.00000    90.00  LINEAR    3.20192E-10   173.53    3.08554E-01    93.93
  -25.00     0.00    -187.18   -7.39   -7.39    0.00000    90.00  LINEAR    3.10329E-10   175.06    3.02888E-01    95.24
  -24.00     0.00    -187.46   -7.56   -7.56    0.00000    90.00  LINEAR    3.00663E-10   176.66    2.97264E-01    96.66
  -23.00     0.00    -187.73   -7.72   -7.72    0.00000    90.00  LINEAR    2.91251E-10   178.33    2.91755E-01    98.19
  -22.00     0.00    -188.01   -7.88   -7.88    0.00000    90.00  LINEAR    2.82148E-10  -179.94    2.86432E-01    99.83
  -21.00     0.00    -188.28   -8.03   -8.03    0.00000    90.00  LINEAR    2.73403E-10  -178.14    2.81365E-01   101.57
  -20.00     0.00    -188.55   -8.18   -8.18    0.00000    90.00  LINEAR    2.65061E-10  -176.28    2.76624E-01   103.40
  -19.00     0.00    -188.82   -8.32   -8.32    0.00000    90.00  LINEAR    2.57161E-10  -174.37    2.72271E-01   105.31
  -18.00     0.00    -189.07   -8.45   -8.45    0.00000    90.00  LINEAR    2.49735E-10  -172.42    2.68366E-01   107.30
  -17.00     0.00    -189.31   -8.56   -8.56    0.00000    90.00  LINEAR    2.42811E-10  -170.44    2.64960E-01   109.33
  -16.00     0.00    -189.55   -8.65   -8.65    0.00000    90.00  LINEAR    2.36405E-10  -168.43    2.62095E-01   111.41
  -15.00     0.00    -189.77   -8.73   -8.73    0.00000    90.00  LINEAR    2.30531E-10  -166.42    2.59805E-01   113.50
  -14.00     0.00    -189.97   -8.78   -8.78    0.00000    90.00  LINEAR    2.25190E-10  -164.42    2.58111E-01   115.59
  -13.00     0.00    -190.16   -8.82   -8.82    0.00000    90.00  LINEAR    2.20378E-10  -162.46    2.57025E-01   117.64
  -12.00     0.00    -190.33   -8.84   -8.84    0.00000    90.00  LINEAR    2.16083E-10  -160.54    2.56546E-01   119.64
  -11.00     0.00    -190.48   -8.83   -8.83    0.00000    90.00  LINEAR    2.12286E-10  -158.70    2.56664E-01   121.56
  -10.00     0.00    -190.62   -8.81   -8.81    0.00000    90.00  LINEAR    2.08964E-10  -156.94    2.57357E-01   123.37
   -9.00     0.00    -190.74   -8.77   -8.77    0.00000    90.00  LINEAR    2.06088E-10  -155.30    2.58597E-01   125.05
   -8.00     0.00    -190.84   -8.71   -8.71    0.00000    90.00  LINEAR    2.03626E-10  -153.78    2.60349E-01   126.60
   -7.00     0.00    -190.93   -8.64   -8.64    0.00000    90.00  LINEAR    2.01545E-10  -152.41    2.62575E-01   127.97
   -6.00     0.00    -191.01   -8.55   -8.55    0.00000    90.00  LINEAR    1.99811E-10  -151.20    2.65235E-01   129.17
   -5.00     0.00    -191.07   -8.45   -8.45    0.00000    90.00  LINEAR    1.98392E-10  -150.15    2.68289E-01   130.18
   -4.00     0.00    -191.12   -8.34   -8.34    0.00000    90.00  LINEAR    1.97258E-10  -149.30    2.71700E-01   130.98
   -3.00     0.00    -191.16   -8.22   -8.22    0.00000    90.00  LINEAR    1.96384E-10  -148.63    2.75438E-01   131.58
   -2.00     0.00    -191.19   -8.09   -8.09    0.00000    90.00  LINEAR    1.95747E-10  -148.16    2.79479E-01   131.96
   -1.00     0.00    -191.20   -7.96   -7.96    0.00000    90.00  LINEAR    1.95332E-10  -147.89    2.83806E-01   132.12
    0.00     0.00    -191.21   -7.82   -7.82    0.00000    90.00  LINEAR    1.95130E-10  -147.84    2.88416E-01   132.06
  -90.00     1.00    -999.99 -999.99 -999.99    0.00000     0.00            3.83043E-14   177.10    3.25582E-12   -25.36
  -89.00     1.00     -75.27  -36.13  -36.12    0.00454   -89.42  LEFT      1.22345E-04    -1.25    1.10853E-02   154.48
  -88.00     1.00     -69.80  -30.16  -30.16    0.00464   -89.47  LEFT      2.29622E-04     0.62    2.20404E-02   154.19
  -87.00     1.00     -66.79  -26.70  -26.70    0.00479   -89.50  LEFT      3.24734E-04     2.73    3.28229E-02   153.78
  -86.00     1.00     -64.76  -24.27  -24.27    0.00499   -89.54  LEFT      4.10148E-04     5.10    4.33929E-02   153.24
  -85.00     1.00     -63.25  -22.42  -22.42    0.00523   -89.57  LEFT      4.88051E-04     7.73    5.37150E-02   152.58
  -84.00     1.00     -62.05  -20.93  -20.93    0.00551   -89.61  LEFT      5.60458E-04    10.61    6.37589E-02   151.78
  -83.00     1.00     -61.04  -19.69  -19.69    0.00583   -89.64  LEFT      6.29278E-04    13.74    7.35003E-02   150.86
  -82.00     1.00     -60.16  -18.65  -18.65    0.00617   -89.67  LEFT      6.96343E-04    17.07    8.29216E-02   149.81
  -81.00     1.00     -59.37  -17.74  -17.74    0.00653   -89.71  LEFT      7.63415E-04    20.57    9.20127E-02   148.63
  -80.00     1.00     -58.62  -16.95  -16.95    0.00692   -89.74  LEFT      8.32163E-04    24.20    1.00771E-01   147.32
  -79.00     1.00     -57.90  -16.26  -16.26    0.00731   -89.78  LEFT      9.04131E-04    27.89    1.09203E-01   145.88
  -78.00     1.00     -57.19  -15.63  -15.63    0.00771   -89.81  LEFT      9.80701E-04    31.58    1.17322E-01   144.32
  -77.00     1.00     -56.49  -15.07  -15.07    0.00810   -89.85  LEFT      1.06305E-03    35.22    1.25149E-01   142.64
  -76.00     1.00     -55.79  -14.56  -14.56    0.00849   -89.90  LEFT      1.15214E-03    38.77    1.32714E-01   140.84
  -75.00     1.00     -55.09  -14.09  -14.09    0.00885   -89.94  LEFT      1.24868E-03    42.16    1.40051E-01   138.93
  -74.00     1.00     -54.39  -13.66  -13.66    0.00919   -89.99  LEFT      1.35316E-03    45.38    1.47203E-01   136.92
  -73.00     1.00     -53.70  -13.26  -13.26    0.00949    89.97  LEFT      1.46582E-03    48.41    1.54214E-01   134.81
  -72.00     1.00     -53.01  -12.88  -12.88    0.00974    89.92  LEFT      1.58673E-03    51.22    1.61130E-01   132.62
  -71.00     1.00     -52.33  -12.51  -12.51    0.00993    89.86  LEFT      1.71576E-03    53.82    1.68001E-01   130.37
  -70.00     1.00     -51.66  -12.17  -12.17    0.01007    89.81  LEFT      1.85264E-03    56.22    1.74873E-01   128.06
  -69.00     1.00     -51.01  -11.83  -11.83    0.01013    89.76  LEFT      1.99700E-03    58.41    1.81791E-01   125.71
  -68.00     1.00     -50.38  -11.50  -11.50    0.01013    89.70  LEFT      2.14831E-03    60.41    1.88791E-01   123.34
  -67.00     1.00     -49.76  -11.18  -11.18    0.01006    89.65  LEFT      2.30602E-03    62.23    1.95908E-01   120.97
  -66.00     1.00     -49.17  -10.86  -10.86    0.00992    89.60  LEFT      2.46946E-03    63.89    2.03165E-01   118.61
  -65.00     1.00     -48.60  -10.55  -10.55    0.00972    89.55  LEFT      2.63793E-03    65.40    2.10577E-01   116.28
  -64.00     1.00     -48.04  -10.25  -10.24    0.00945    89.50  LEFT      2.81067E-03    66.78    2.18150E-01   113.99
  -63.00     1.00     -47.52   -9.94   -9.94    0.00914    89.45  LEFT      2.98689E-03    68.04    2.25880E-01   111.75
  -62.00     1.00     -47.01   -9.65   -9.64    0.00878    89.41  LEFT      3.16577E-03    69.19    2.33754E-01   109.59
  -61.00     1.00     -46.53   -9.35   -9.35    0.00838    89.37  LEFT      3.34646E-03    70.24    2.41748E-01   107.50
  -60.00     1.00     -46.07   -9.07   -9.07    0.00796    89.33  LEFT      3.52808E-03    71.21    2.49832E-01   105.51
  -59.00     1.00     -45.63   -8.79   -8.79    0.00751    89.30  LEFT      3.70976E-03    72.10    2.57967E-01   103.60
  -58.00     1.00     -45.22   -8.52   -8.52    0.00706    89.27  LEFT      3.89062E-03    72.92    2.66111E-01   101.80
  -57.00     1.00     -44.83   -8.26   -8.26    0.00660    89.24  LEFT      4.06975E-03    73.69    2.74213E-01   100.09
  -56.00     1.00     -44.46   -8.01   -8.01    0.00614    89.21  LEFT      4.24629E-03    74.41    2.82223E-01    98.49
  -55.00     1.00     -44.11   -7.77   -7.77    0.00569    89.19  LEFT      4.41935E-03    75.08    2.90084E-01    97.00
  -54.00     1.00     -43.79   -7.54   -7.54    0.00524    89.17  LEFT      4.58809E-03    75.72    2.97743E-01    95.61
  -53.00     1.00     -43.48   -7.33   -7.33    0.00481    89.15  LEFT      4.75167E-03    76.33    3.05144E-01    94.32
  -52.00     1.00     -43.20   -7.13   -7.13    0.00439    89.14  LEFT      4.90927E-03    76.91    3.12233E-01    93.13
  -51.00     1.00     -42.94   -6.95   -6.94    0.00399    89.12  LEFT      5.06015E-03    77.47    3.18958E-01    92.05
  -50.00     1.00     -42.69   -6.78   -6.77    0.00361    89.11  LEFT      5.20355E-03    78.02    3.25268E-01    91.06
  -49.00     1.00     -42.47   -6.62   -6.62    0.00324    89.10  LEFT      5.33879E-03    78.56    3.31119E-01    90.16
  -48.00     1.00     -42.27   -6.48   -6.48    0.00290    89.08  LEFT      5.46525E-03    79.09    3.36468E-01    89.36
  -47.00     1.00     -42.08   -6.36   -6.36    0.00257    89.07  LEFT      5.58234E-03    79.61    3.41277E-01    88.66
  -46.00     1.00     -41.92   -6.25   -6.25    0.00226    89.07  LEFT      5.68955E-03    80.14    3.45515E-01    88.04
  -45.00     1.00     -41.77   -6.16   -6.16    0.00197    89.06  LEFT      5.78642E-03    80.67    3.49153E-01    87.50
  -44.00     1.00     -41.64   -6.09   -6.08    0.00170    89.05  LEFT      5.87257E-03    81.22    3.52169E-01    87.06
  -43.00     1.00     -41.53   -6.03   -6.03    0.00144    89.04  LEFT      5.94769E-03    81.77    3.54547E-01    86.70
  -42.00     1.00     -41.44   -5.98   -5.98    0.00120    89.04  LEFT      6.01155E-03    82.34    3.56276E-01    86.42
  -41.00     1.00     -41.37   -5.96   -5.96    0.00098    89.03  LEFT      6.06399E-03    82.93    3.57352E-01    86.23
  -40.00     1.00     -41.31   -5.95   -5.95    0.00077    89.02  LEFT      6.10495E-03    83.54    3.57773E-01    86.11
  -39.00     1.00     -41.26   -5.95   -5.95    0.00057    89.02  LEFT      6.13445E-03    84.17    3.57549E-01    86.09
  -38.00     1.00     -41.24   -5.97   -5.97    0.00039    89.01  LEFT      6.15257E-03    84.84    3.56689E-01    86.14
  -37.00     1.00     -41.23   -6.01   -6.01    0.00023    89.01  LEFT      6.15951E-03    85.54    3.55213E-01    86.28
  -36.00     1.00     -41.23   -6.06   -6.06    0.00007    89.00  LEFT      6.15554E-03    86.27    3.53143E-01    86.51
  -35.00     1.00     -41.26   -6.13   -6.13    0.00007    89.00  RIGHT     6.14102E-03    87.05    3.50507E-01    86.82
  -34.00     1.00     -41.29   -6.21   -6.20    0.00020    88.99  RIGHT     6.11639E-03    87.86    3.47341E-01    87.22
  -33.00     1.00     -41.34   -6.30   -6.30    0.00031    88.99  RIGHT     6.08220E-03    88.73    3.43683E-01    87.71
  -32.00     1.00     -41.40   -6.40   -6.40    0.00042    88.98  RIGHT     6.03905E-03    89.65    3.39576E-01    88.30
  -31.00     1.00     -41.48   -6.52   -6.52    0.00051    88.98  RIGHT     5.98765E-03    90.62    3.35069E-01    88.98
  -30.00     1.00     -41.56   -6.64   -6.64    0.00059    88.97  RIGHT     5.92876E-03    91.65    3.30215E-01    89.76
  -29.00     1.00     -41.66   -6.78   -6.78    0.00066    88.97  RIGHT     5.86325E-03    92.74    3.25071E-01    90.65
  -28.00     1.00     -41.76   -6.93   -6.92    0.00072    88.96  RIGHT     5.79202E-03    93.90    3.19697E-01    91.63
  -27.00     1.00     -41.88   -7.08   -7.08    0.00076    88.96  RIGHT     5.71606E-03    95.13    3.14158E-01    92.73
  -26.00     1.00     -42.00   -7.23   -7.23    0.00079    88.95  RIGHT     5.63640E-03    96.42    3.08521E-01    93.93
  -25.00     1.00     -42.13   -7.40   -7.39    0.00081    88.95  RIGHT     5.55413E-03    97.79    3.02855E-01    95.24
  -24.00     1.00     -42.26   -7.56   -7.56    0.00082    88.95  RIGHT     5.47036E-03    99.23    2.97231E-01    96.66
  -23.00     1.00     -42.39   -7.72   -7.72    0.00082    88.94  RIGHT     5.38623E-03   100.74    2.91721E-01    98.19
  -22.00     1.00     -42.53   -7.88   -7.88    0.00081    88.94  RIGHT     5.30290E-03   102.33    2.86398E-01    99.83
  -21.00     1.00     -42.66   -8.04   -8.03    0.00078    88.94  RIGHT     5.22151E-03   103.98    2.81332E-01   101.57
  -20.00     1.00     -42.80   -8.18   -8.18    0.00075    88.94  RIGHT     5.14316E-03   105.70    2.76590E-01   103.40
  -19.00     1.00     -42.92   -8.32   -8.32    0.00070    88.93  RIGHT     5.06892E-03   107.47    2.72238E-01   105.31
  -18.00     1.00     -43.04   -8.45   -8.45    0.00065    88.93  RIGHT     4.99979E-03   109.29    2.68333E-01   107.29
  -17.00     1.00     -43.15   -8.56   -8.56    0.00059    88.93  RIGHT     4.93668E-03   111.15    2.64926E-01   109.33
  -16.00     1.00     -43.25   -8.65   -8.65    0.00052    88.93  RIGHT     4.88038E-03   113.03    2.62061E-01   111.41
  -15.00     1.00     -43.34   -8.73   -8.73    0.00046    88.93  RIGHT     4.83154E-03   114.91    2.59771E-01   113.50
  -14.00     1.00     -43.41   -8.79   -8.78    0.00039    88.94  RIGHT     4.79070E-03   116.79    2.58077E-01   115.59
  -13.00     1.00     -43.47   -8.82   -8.82    0.00032    88.94  RIGHT     4.75821E-03   118.64    2.56991E-01   117.64
  -12.00     1.00     -43.52   -8.84   -8.84    0.00026    88.94  RIGHT     4.73428E-03   120.45    2.56512E-01   119.64
  -11.00     1.00     -43.54   -8.83   -8.83    0.00020    88.95  RIGHT     4.71895E-03   122.19    2.56629E-01   121.56
  -10.00     1.00     -43.56   -8.81   -8.81    0.00015    88.95  RIGHT     4.71211E-03   123.84    2.57321E-01   123.37
   -9.00     1.00     -43.55   -8.77   -8.77    0.00010    88.96  RIGHT     4.71355E-03   125.38    2.58561E-01   125.05
   -8.00     1.00     -43.54   -8.71   -8.71    0.00006    88.96  RIGHT     4.72293E-03   126.80    2.60312E-01   126.59
   -7.00     1.00     -43.51   -8.64   -8.64    0.00003    88.97  RIGHT     4.73984E-03   128.08    2.62538E-01   127.97
   -6.00     1.00     -43.46   -8.55   -8.55    0.00001    88.97  LINEAR    4.76382E-03   129.20    2.65196E-01   129.17
   -5.00     1.00     -43.41   -8.45   -8.45    0.00001    88.98  LINEAR    4.79441E-03   130.15    2.68249E-01   130.17
   -4.00     1.00     -43.34   -8.34   -8.34    0.00002    88.98  LEFT      4.83116E-03   130.92    2.71660E-01   130.98
   -3.00     1.00     -43.26   -8.22   -8.22    0.00002    88.99  LEFT      4.87370E-03   131.50    2.75397E-01   131.58
   -2.00     1.00     -43.18   -8.09   -8.09    0.00002    88.99  LEFT      4.92172E-03   131.89    2.79437E-01   131.96
   -1.00     1.00     -43.08   -7.96   -7.96    0.00001    89.00  LEFT      4.97502E-03   132.07    2.83764E-01   132.12
    0.00     1.00     -42.98   -7.82   -7.82    0.00000    89.00  LINEAR    5.03356E-03   132.06    2.88372E-01   132.06
  -90.00     2.00    -999.99 -999.99 -999.99    0.00000     0.00            7.66686E-14   177.07    3.25332E-12   -25.47
  -89.00     2.00     -69.24  -36.13  -36.13    0.00911   -88.85  LEFT      2.44882E-04    -1.28    1.10763E-02   154.38
  -88.00     2.00     -63.77  -30.16  -30.16    0.00931   -88.93  LEFT      4.59603E-04     0.59    2.20227E-02   154.09
  -87.00     2.00     -60.76  -26.70  -26.70    0.00961   -89.01  LEFT      6.49974E-04     2.70    3.27968E-02   153.68
  -86.00     2.00     -58.73  -24.28  -24.28    0.01001   -89.08  LEFT      8.20932E-04     5.07    4.33591E-02   153.14
  -85.00     2.00     -57.22  -22.42  -22.42    0.01049   -89.15  LEFT      9.76855E-04     7.69    5.36741E-02   152.48
  -84.00     2.00     -56.02  -20.94  -20.93    0.01105   -89.21  LEFT      1.12178E-03    10.58    6.37119E-02   151.68
  -83.00     2.00     -55.02  -19.70  -19.70    0.01168   -89.28  LEFT      1.25951E-03    13.70    7.34481E-02   150.76
  -82.00     2.00     -54.14  -18.65  -18.65    0.01237   -89.35  LEFT      1.39374E-03    17.04    8.28653E-02   149.71
  -81.00     2.00     -53.34  -17.75  -17.75    0.01310   -89.41  LEFT      1.52797E-03    20.54    9.19535E-02   148.53
  -80.00     2.00     -52.59  -16.96  -16.96    0.01386   -89.48  LEFT      1.66556E-03    24.17    1.00710E-01   147.22
  -79.00     2.00     -51.87  -16.26  -16.26    0.01465   -89.56  LEFT      1.80959E-03    27.86    1.09142E-01   145.78
  -78.00     2.00     -51.16  -15.64  -15.64    0.01544   -89.63  LEFT      1.96282E-03    31.55    1.17261E-01   144.22
  -77.00     2.00     -50.46  -15.08  -15.07    0.01623   -89.71  LEFT      2.12763E-03    35.20    1.25091E-01   142.54
  -76.00     2.00     -49.76  -14.57  -14.56    0.01700   -89.79  LEFT      2.30591E-03    38.74    1.32659E-01   140.74
  -75.00     2.00     -49.06  -14.10  -14.10    0.01773   -89.88  LEFT      2.49910E-03    42.14    1.40002E-01   138.83
  -74.00     2.00     -48.37  -13.66  -13.66    0.01840   -89.97  LEFT      2.70816E-03    45.36    1.47160E-01   136.82
  -73.00     2.00     -47.67  -13.26  -13.26    0.01899    89.93  LEFT      2.93360E-03    48.38    1.54177E-01   134.72
  -72.00     2.00     -46.98  -12.88  -12.88    0.01949    89.83  LEFT      3.17553E-03    51.20    1.61101E-01   132.53
  -71.00     2.00     -46.30  -12.52  -12.51    0.01987    89.73  LEFT      3.43372E-03    53.80    1.67980E-01   130.28
  -70.00     2.00     -45.64  -12.17  -12.16    0.02014    89.62  LEFT      3.70762E-03    56.19    1.74861E-01   127.97
  -69.00     2.00     -44.99  -11.83  -11.83    0.02027    89.51  LEFT      3.99645E-03    58.38    1.81787E-01   125.63
  -68.00     2.00     -44.35  -11.50  -11.50    0.02027    89.40  LEFT      4.29921E-03    60.39    1.88796E-01   123.27
  -67.00     2.00     -43.74  -11.18  -11.18    0.02012    89.30  LEFT      4.61474E-03    62.21    1.95921E-01   120.90
  -66.00     2.00     -43.14  -10.86  -10.86    0.01984    89.19  LEFT      4.94174E-03    63.87    2.03186E-01   118.54
  -65.00     2.00     -42.57  -10.55  -10.55    0.01943    89.09  LEFT      5.27879E-03    65.38    2.10605E-01   116.21
  -64.00     2.00     -42.02  -10.24  -10.24    0.01890    89.00  LEFT      5.62438E-03    66.76    2.18185E-01   113.92
  -63.00     2.00     -41.49   -9.94   -9.94    0.01826    88.90  LEFT      5.97692E-03    68.02    2.25920E-01   111.69
  -62.00     2.00     -40.99   -9.64   -9.64    0.01754    88.82  LEFT      6.33477E-03    69.17    2.33798E-01   109.54
  -61.00     2.00     -40.50   -9.35   -9.35    0.01675    88.74  LEFT      6.69621E-03    70.22    2.41795E-01   107.45
  -60.00     2.00     -40.04   -9.07   -9.06    0.01590    88.66  LEFT      7.05953E-03    71.19    2.49881E-01   105.46
  -59.00     2.00     -39.61   -8.79   -8.78    0.01501    88.59  LEFT      7.42294E-03    72.08    2.58017E-01   103.56
  -58.00     2.00     -39.20   -8.52   -8.51    0.01410    88.53  LEFT      7.78469E-03    72.91    2.66160E-01   101.76
  -57.00     2.00     -38.80   -8.26   -8.25    0.01318    88.48  LEFT      8.14299E-03    73.68    2.74261E-01   100.06
  -56.00     2.00     -38.44   -8.01   -8.00    0.01227    88.43  LEFT      8.49608E-03    74.39    2.82268E-01    98.46
  -55.00     2.00     -38.09   -7.77   -7.76    0.01136    88.38  LEFT      8.84221E-03    75.07    2.90126E-01    96.97
  -54.00     2.00     -37.76   -7.54   -7.54    0.01047    88.34  LEFT      9.17967E-03    75.71    2.97781E-01    95.58
  -53.00     2.00     -37.46   -7.33   -7.33    0.00961    88.30  LEFT      9.50680E-03    76.32    3.05177E-01    94.29
  -52.00     2.00     -37.18   -7.13   -7.13    0.00877    88.27  LEFT      9.82198E-03    76.90    3.12260E-01    93.11
  -51.00     2.00     -36.91   -6.95   -6.94    0.00797    88.24  LEFT      1.01237E-02    77.46    3.18978E-01    92.03
  -50.00     2.00     -36.67   -6.78   -6.77    0.00721    88.21  LEFT      1.04104E-02    78.01    3.25282E-01    91.04
  -49.00     2.00     -36.45   -6.62   -6.62    0.00648    88.19  LEFT      1.06808E-02    78.55    3.31126E-01    90.15
  -48.00     2.00     -36.24   -6.48   -6.48    0.00579    88.17  LEFT      1.09337E-02    79.08    3.36468E-01    89.35
  -47.00     2.00     -36.06   -6.36   -6.35    0.00513    88.15  LEFT      1.11678E-02    79.60    3.41270E-01    88.64
  -46.00     2.00     -35.90   -6.25   -6.25    0.00452    88.13  LEFT      1.13821E-02    80.13    3.45501E-01    88.02
  -45.00     2.00     -35.75   -6.16   -6.16    0.00394    88.11  LEFT      1.15757E-02    80.67    3.49131E-01    87.49
  -44.00     2.00     -35.62   -6.09   -6.08    0.00339    88.10  LEFT      1.17479E-02    81.21    3.52141E-01    87.05
  -43.00     2.00     -35.51   -6.03   -6.02    0.00288    88.08  LEFT      1.18980E-02    81.76    3.54512E-01    86.69
  -42.00     2.00     -35.42   -5.99   -5.98    0.00240    88.07  LEFT      1.20256E-02    82.33    3.56234E-01    86.41
  -41.00     2.00     -35.34   -5.96   -5.95    0.00195    88.06  LEFT      1.21303E-02    82.92    3.57303E-01    86.22
  -40.00     2.00     -35.28   -5.95   -5.94    0.00153    88.05  LEFT      1.22121E-02    83.53    3.57719E-01    86.11
  -39.00     2.00     -35.24   -5.96   -5.95    0.00114    88.04  LEFT      1.22710E-02    84.17    3.57489E-01    86.08
  -38.00     2.00     -35.22   -5.98   -5.97    0.00078    88.02  LEFT      1.23071E-02    84.83    3.56624E-01    86.14
  -37.00     2.00     -35.21   -6.01   -6.01    0.00045    88.01  LEFT      1.23208E-02    85.53    3.55142E-01    86.28
  -36.00     2.00     -35.21   -6.06   -6.06    0.00014    88.00  LEFT      1.23127E-02    86.27    3.53068E-01    86.50
  -35.00     2.00     -35.23   -6.13   -6.12    0.00014    87.99  RIGHT     1.22835E-02    87.04    3.50429E-01    86.81
  -34.00     2.00     -35.27   -6.21   -6.20    0.00040    87.98  RIGHT     1.22341E-02    87.86    3.47259E-01    87.22
  -33.00     2.00     -35.32   -6.30   -6.29    0.00063    87.97  RIGHT     1.21656E-02    88.73    3.43597E-01    87.71
  -32.00     2.00     -35.38   -6.40   -6.40    0.00084    87.96  RIGHT     1.20792E-02    89.64    3.39487E-01    88.30
  -31.00     2.00     -35.45   -6.52   -6.51    0.00102    87.95  RIGHT     1.19762E-02    90.62    3.34978E-01    88.98
  -30.00     2.00     -35.54   -6.65   -6.64    0.00118    87.94  RIGHT     1.18583E-02    91.65    3.30122E-01    89.76
  -29.00     2.00     -35.64   -6.78   -6.78    0.00132    87.93  RIGHT     1.17272E-02    92.74    3.24976E-01    90.64
  -28.00     2.00     -35.74   -6.93   -6.92    0.00143    87.93  RIGHT     1.15846E-02    93.90    3.19601E-01    91.63
  -27.00     2.00     -35.86   -7.08   -7.07    0.00152    87.92  RIGHT     1.14326E-02    95.12    3.14060E-01    92.73
  -26.00     2.00     -35.98   -7.24   -7.23    0.00159    87.91  RIGHT     1.12731E-02    96.42    3.08422E-01    93.93
  -25.00     2.00     -36.11   -7.40   -7.39    0.00163    87.90  RIGHT     1.11085E-02    97.79    3.02755E-01    95.24
  -24.00     2.00     -36.24   -7.56   -7.56    0.00165    87.89  RIGHT     1.09408E-02    99.23    2.97131E-01    96.66
  -23.00     2.00     -36.37   -7.72   -7.72    0.00164    87.89  RIGHT     1.07725E-02   100.74    2.91621E-01    98.19
  -22.00     2.00     -36.51   -7.88   -7.88    0.00161    87.88  RIGHT     1.06057E-02   102.33    2.86298E-01    99.83
  -21.00     2.00     -36.64   -8.04   -8.03    0.00156    87.88  RIGHT     1.04429E-02   103.98    2.81231E-01   101.57
  -20.00     2.00     -36.78   -8.19   -8.18    0.00149    87.87  RIGHT     1.02861E-02   105.69    2.76490E-01   103.40
  -19.00     2.00     -36.90   -8.32   -8.32    0.00140    87.87  RIGHT     1.01375E-02   107.47    2.72137E-01   105.31
  -18.00     2.00     -37.02   -8.45   -8.44    0.00130    87.87  RIGHT     9.99922E-03   109.29    2.68232E-01   107.29
  -17.00     2.00     -37.13   -8.56   -8.56    0.00118    87.87  RIGHT     9.87292E-03   111.14    2.64825E-01   109.33
  -16.00     2.00     -37.23   -8.66   -8.65    0.00105    87.87  RIGHT     9.76025E-03   113.02    2.61960E-01   111.41
  -15.00     2.00     -37.32   -8.73   -8.73    0.00092    87.87  RIGHT     9.66252E-03   114.91    2.59669E-01   113.50
  -14.00     2.00     -37.39   -8.79   -8.78    0.00078    87.87  RIGHT     9.58078E-03   116.79    2.57974E-01   115.59
  -13.00     2.00     -37.45   -8.83   -8.82    0.00065    87.88  RIGHT     9.51574E-03   118.64    2.56887E-01   117.64
  -12.00     2.00     -37.50   -8.84   -8.84    0.00052    87.89  RIGHT     9.46781E-03   120.45    2.56407E-01   119.64
  -11.00     2.00     -37.52   -8.84   -8.83    0.00040    87.89  RIGHT     9.43708E-03   122.19    2.56523E-01   121.55
  -10.00     2.00     -37.54   -8.81   -8.81    0.00030    87.90  RIGHT     9.42336E-03   123.84    2.57214E-01   123.37
   -9.00     2.00     -37.53   -8.77   -8.77    0.00021    87.91  RIGHT     9.42618E-03   125.38    2.58451E-01   125.05
   -8.00     2.00     -37.52   -8.71   -8.71    0.00013    87.92  RIGHT     9.44487E-03   126.80    2.60201E-01   126.59
   -7.00     2.00     -37.49   -8.64   -8.63    0.00007    87.93  RIGHT     9.47862E-03   128.08    2.62425E-01   127.97
   -6.00     2.00     -37.44   -8.55   -8.55    0.00002    87.94  RIGHT     9.52652E-03   129.20    2.65081E-01   129.17
   -5.00     2.00     -37.39   -8.45   -8.45    0.00002    87.95  LEFT      9.58763E-03   130.15    2.68132E-01   130.17
   -4.00     2.00     -37.32   -8.34   -8.34    0.00004    87.96  LEFT      9.66108E-03   130.92    2.71540E-01   130.98
   -3.00     2.00     -37.24   -8.22   -8.22    0.00005    87.97  LEFT      9.74608E-03   131.50    2.75274E-01   131.57
   -2.00     2.00     -37.16   -8.10   -8.09    0.00004    87.98  LEFT      9.84204E-03   131.89    2.79311E-01   131.96
   -1.00     2.00     -37.07   -7.97   -7.96    0.00003    87.99  LEFT      9.94858E-03   132.07    2.83635E-01   132.12
    0.00     2.00     -36.96   -7.83   -7.82    0.00000    88.00  LINEAR    1.00656E-02   132.06    2.88241E-01   132.06
  -90.00     3.00    -999.99 -999.99 -999.99    0.00000     0.00            1.15153E-13   177.01    3.24890E-12   -25.62
  -89.00     3.00     -65.71  -36.14  -36.14    0.01375   -88.27  LEFT      3.67801E-04    -1.33    1.10614E-02   154.21
  -88.00     3.00     -60.24  -30.17  -30.17    0.01405   -88.39  LEFT      6.90300E-04     0.53    2.19934E-02   153.93
  -87.00     3.00     -57.23  -26.72  -26.71    0.01450   -88.51  LEFT      9.76225E-04     2.64    3.27536E-02   153.52
  -86.00     3.00     -55.20  -24.29  -24.29    0.01509   -88.62  LEFT      1.23299E-03     5.01    4.33030E-02   152.98
  -85.00     3.00     -53.69  -22.44  -22.43    0.01582   -88.72  LEFT      1.46717E-03     7.64    5.36065E-02   152.31
  -84.00     3.00     -52.49  -20.95  -20.94    0.01666   -88.82  LEFT      1.68481E-03    10.53    6.36340E-02   151.52
  -83.00     3.00     -51.48  -19.71  -19.71    0.01760   -88.92  LEFT      1.89167E-03    13.65    7.33616E-02   150.59
  -82.00     3.00     -50.60  -18.66  -18.66    0.01862   -89.02  LEFT      2.09324E-03    16.99    8.27721E-02   149.54
  -81.00     3.00     -49.81  -17.76  -17.76    0.01972   -89.12  LEFT      2.29482E-03    20.49    9.18555E-02   148.36
  -80.00     3.00     -49.06  -16.97  -16.96    0.02086   -89.23  LEFT      2.50142E-03    24.12    1.00610E-01   147.05
  -79.00     3.00     -48.34  -16.27  -16.27    0.02204   -89.33  LEFT      2.71770E-03    27.81    1.09041E-01   145.62
  -78.00     3.00     -47.63  -15.64  -15.64    0.02323   -89.45  LEFT      2.94778E-03    31.50    1.17162E-01   144.06
  -77.00     3.00     -46.93  -15.08  -15.08    0.02441   -89.57  LEFT      3.19523E-03    35.15    1.24995E-01   142.38
  -76.00     3.00     -46.23  -14.57  -14.57    0.02556   -89.69  LEFT      3.46291E-03    38.69    1.32570E-01   140.58
  -75.00     3.00     -45.53  -14.10  -14.10    0.02665   -89.82  LEFT      3.75297E-03    42.09    1.39920E-01   138.67
  -74.00     3.00     -44.84  -13.67  -13.67    0.02764   -89.96  LEFT      4.06684E-03    45.31    1.47088E-01   136.66
  -73.00     3.00     -44.14  -13.26  -13.26    0.02852    89.89  LEFT      4.40530E-03    48.34    1.54116E-01   134.56
  -72.00     3.00     -43.45  -12.88  -12.88    0.02926    89.74  LEFT      4.76851E-03    51.16    1.61053E-01   132.38
  -71.00     3.00     -42.77  -12.52  -12.51    0.02984    89.59  LEFT      5.15609E-03    53.76    1.67946E-01   130.13
  -70.00     3.00     -42.11  -12.17  -12.16    0.03022    89.43  LEFT      5.56726E-03    56.15    1.74841E-01   127.83
  -69.00     3.00     -41.46  -11.83  -11.82    0.03041    89.26  LEFT      6.00081E-03    58.35    1.81782E-01   125.49
  -68.00     3.00     -40.82  -11.50  -11.49    0.03040    89.10  LEFT      6.45526E-03    60.35    1.88805E-01   123.14
  -67.00     3.00     -40.21  -11.18  -11.17    0.03017    88.94  LEFT      6.92886E-03    62.17    1.95944E-01   120.77
  -66.00     3.00     -39.61  -10.86  -10.86    0.02974    88.79  LEFT      7.41965E-03    63.84    2.03222E-01   118.42
  -65.00     3.00     -39.04  -10.55  -10.54    0.02912    88.64  LEFT      7.92550E-03    65.35    2.10653E-01   116.10
  -64.00     3.00     -38.49  -10.24  -10.23    0.02832    88.49  LEFT      8.44415E-03    66.73    2.18243E-01   113.82
  -63.00     3.00     -37.96   -9.94   -9.93    0.02736    88.35  LEFT      8.97321E-03    67.99    2.25987E-01   111.60
  -62.00     3.00     -37.46   -9.64   -9.63    0.02628    88.22  LEFT      9.51019E-03    69.14    2.33871E-01   109.44
  -61.00     3.00     -36.97   -9.35   -9.34    0.02509    88.10  LEFT      1.00526E-02    70.19    2.41873E-01   107.37
  -60.00     3.00     -36.52   -9.06   -9.05    0.02381    87.99  LEFT      1.05977E-02    71.16    2.49962E-01   105.38
  -59.00     3.00     -36.08   -8.78   -8.78    0.02248    87.89  LEFT      1.11429E-02    72.06    2.58099E-01   103.49
  -58.00     3.00     -35.67   -8.51   -8.51    0.02112    87.80  LEFT      1.16857E-02    72.88    2.66242E-01   101.69
  -57.00     3.00     -35.28   -8.25   -8.25    0.01974    87.71  LEFT      1.22232E-02    73.65    2.74340E-01   100.00
  -56.00     3.00     -34.91   -8.00   -8.00    0.01836    87.64  LEFT      1.27529E-02    74.37    2.82342E-01    98.41
  -55.00     3.00     -34.56   -7.77   -7.76    0.01701    87.57  LEFT      1.32721E-02    75.05    2.90195E-01    96.92
  -54.00     3.00     -34.24   -7.54   -7.53    0.01567    87.51  LEFT      1.37782E-02    75.69    2.97843E-01    95.53
  -53.00     3.00     -33.93   -7.33   -7.32    0.01438    87.45  LEFT      1.42689E-02    76.30    3.05230E-01    94.25
  -52.00     3.00     -33.65   -7.13   -7.12    0.01313    87.40  LEFT      1.47415E-02    76.88    3.12304E-01    93.07
  -51.00     3.00     -33.39   -6.94   -6.93    0.01194    87.36  LEFT      1.51940E-02    77.44    3.19012E-01    91.99
  -50.00     3.00     -33.14   -6.77   -6.76    0.01079    87.32  LEFT      1.56239E-02    77.99    3.25305E-01    91.01
  -49.00     3.00     -32.92   -6.62   -6.61    0.00970    87.28  LEFT      1.60294E-02    78.53    3.31138E-01    90.12
  -48.00     3.00     -32.72   -6.48   -6.47    0.00867    87.25  LEFT      1.64084E-02    79.06    3.36468E-01    89.32
  -47.00     3.00     -32.54   -6.36   -6.35    0.00769    87.22  LEFT      1.67593E-02    79.59    3.41258E-01    88.62
  -46.00     3.00     -32.37   -6.25   -6.24    0.00676    87.20  LEFT      1.70805E-02    80.12    3.45477E-01    88.00
  -45.00     3.00     -32.22   -6.16   -6.15    0.00589    87.17  LEFT      1.73707E-02    80.65    3.49095E-01    87.47
  -44.00     3.00     -32.10   -6.09   -6.08    0.00508    87.15  LEFT      1.76286E-02    81.20    3.52093E-01    87.03
  -43.00     3.00     -31.99   -6.03   -6.02    0.00431    87.13  LEFT      1.78535E-02    81.75    3.54453E-01    86.67
  -42.00     3.00     -31.89   -5.99   -5.98    0.00359    87.11  LEFT      1.80445E-02    82.32    3.56164E-01    86.39
  -41.00     3.00     -31.82   -5.96   -5.95    0.00292    87.09  LEFT      1.82013E-02    82.91    3.57223E-01    86.20
  -40.00     3.00     -31.76   -5.95   -5.94    0.00229    87.07  LEFT      1.83237E-02    83.52    3.57629E-01    86.09
  -39.00     3.00     -31.72   -5.96   -5.95    0.00171    87.05  LEFT      1.84116E-02    84.16    3.57388E-01    86.07
  -38.00     3.00     -31.69   -5.98   -5.97    0.00117    87.04  LEFT      1.84654E-02    84.82    3.56515E-01    86.12
  -37.00     3.00     -31.68   -6.02   -6.00    0.00067    87.02  LEFT      1.84856E-02    85.52    3.55025E-01    86.27
  -36.00     3.00     -31.69   -6.07   -6.05    0.00021    87.00  LEFT      1.84731E-02    86.26    3.52943E-01    86.49
  -35.00     3.00     -31.71   -6.13   -6.12    0.00021    86.99  RIGHT     1.84290E-02    87.03    3.50297E-01    86.81
  -34.00     3.00     -31.75   -6.21   -6.20    0.00059    86.97  RIGHT     1.83545E-02    87.85    3.47121E-01    87.21
  -33.00     3.00     -31.79   -6.30   -6.29    0.00094    86.96  RIGHT     1.82514E-02    88.72    3.43454E-01    87.70
  -32.00     3.00     -31.86   -6.41   -6.40    0.00125    86.94  RIGHT     1.81214E-02    89.64    3.39339E-01    88.29
  -31.00     3.00     -31.93   -6.52   -6.51    0.00153    86.93  RIGHT     1.79667E-02    90.61    3.34826E-01    88.97
  -30.00     3.00     -32.02   -6.65   -6.64    0.00177    86.92  RIGHT     1.77895E-02    91.64    3.29966E-01    89.76
  -29.00     3.00     -32.11   -6.79   -6.77    0.00197    86.90  RIGHT     1.75924E-02    92.73    3.24817E-01    90.64
  -28.00     3.00     -32.22   -6.93   -6.92    0.00214    86.89  RIGHT     1.73783E-02    93.89    3.19440E-01    91.63
  -27.00     3.00     -32.34   -7.08   -7.07    0.00228    86.88  RIGHT     1.71499E-02    95.12    3.13897E-01    92.72
  -26.00     3.00     -32.46   -7.24   -7.23    0.00238    86.86  RIGHT     1.69105E-02    96.41    3.08257E-01    93.92
  -25.00     3.00     -32.59   -7.40   -7.39    0.00244    86.85  RIGHT     1.66633E-02    97.78    3.02589E-01    95.24
  -24.00     3.00     -32.72   -7.57   -7.55    0.00247    86.84  RIGHT     1.64116E-02    99.22    2.96964E-01    96.66
  -23.00     3.00     -32.85   -7.73   -7.72    0.00246    86.83  RIGHT     1.61588E-02   100.74    2.91454E-01    98.19
  -22.00     3.00     -32.99   -7.89   -7.88    0.00241    86.82  RIGHT     1.59085E-02   102.32    2.86130E-01    99.83
  -21.00     3.00     -33.12   -8.04   -8.03    0.00234    86.81  RIGHT     1.56640E-02   103.98    2.81063E-01   101.56
  -20.00     3.00     -33.25   -8.19   -8.18    0.00223    86.81  RIGHT     1.54286E-02   105.69    2.76322E-01   103.39
  -19.00     3.00     -33.38   -8.33   -8.32    0.00210    86.80  RIGHT     1.52056E-02   107.46    2.71969E-01   105.31
  -18.00     3.00     -33.50   -8.46   -8.44    0.00194    86.80  RIGHT     1.49979E-02   109.29    2.68063E-01   107.29
  -17.00     3.00     -33.61   -8.57   -8.55    0.00176    86.80  RIGHT     1.48083E-02   111.14    2.64656E-01   109.33
  -16.00     3.00     -33.71   -8.66   -8.65    0.00157    86.80  RIGHT     1.46391E-02   113.02    2.61790E-01   111.41
  -15.00     3.00     -33.80   -8.74   -8.72    0.00137    86.80  RIGHT     1.44924E-02   114.91    2.59498E-01   113.50
  -14.00     3.00     -33.87   -8.79   -8.78    0.00117    86.81  RIGHT     1.43696E-02   116.79    2.57803E-01   115.58
  -13.00     3.00     -33.93   -8.83   -8.82    0.00097    86.82  RIGHT     1.42719E-02   118.64    2.56714E-01   117.64
  -12.00     3.00     -33.97   -8.85   -8.83    0.00078    86.83  RIGHT     1.41998E-02   120.45    2.56232E-01   119.64
  -11.00     3.00     -34.00   -8.84   -8.83    0.00061    86.84  RIGHT     1.41536E-02   122.18    2.56346E-01   121.55
  -10.00     3.00     -34.02   -8.82   -8.81    0.00045    86.85  RIGHT     1.41329E-02   123.83    2.57035E-01   123.37
   -9.00     3.00     -34.01   -8.78   -8.77    0.00031    86.87  RIGHT     1.41369E-02   125.38    2.58270E-01   125.05
   -8.00     3.00     -34.00   -8.72   -8.71    0.00019    86.88  RIGHT     1.41648E-02   126.80    2.60016E-01   126.59
   -7.00     3.00     -33.97   -8.65   -8.63    0.00010    86.90  RIGHT     1.42153E-02   128.07    2.62236E-01   127.97
   -6.00     3.00     -33.92   -8.56   -8.55    0.00003    86.91  RIGHT     1.42870E-02   129.20    2.64889E-01   129.17
   -5.00     3.00     -33.87   -8.46   -8.45    0.00003    86.93  LEFT      1.43785E-02   130.15    2.67936E-01   130.17
   -4.00     3.00     -33.80   -8.35   -8.34    0.00006    86.94  LEFT      1.44885E-02   130.92    2.71340E-01   130.98
   -3.00     3.00     -33.72   -8.23   -8.22    0.00007    86.96  LEFT      1.46158E-02   131.50    2.75070E-01   131.57
   -2.00     3.00     -33.64   -8.11   -8.09    0.00006    86.97  LEFT      1.47596E-02   131.89    2.79102E-01   131.96
   -1.00     3.00     -33.55   -7.97   -7.96    0.00004    86.99  LEFT      1.49192E-02   132.07    2.83421E-01   132.12
    0.00     3.00     -33.44   -7.83   -7.82    0.00000    87.00  LINEAR    1.50945E-02   132.06    2.88021E-01   132.06
  -90.00     4.00    -999.99 -999.99 -999.99    0.00000     0.00            1.53816E-13   176.94    3.24301E-12   -25.86
  -89.00     4.00     -63.19  -36.16  -36.15    0.01850   -87.68  LEFT      4.91293E-04    -1.41    1.10407E-02   153.98
  -88.00     4.00     -57.72  -30.19  -30.18    0.01889   -87.85  LEFT      9.22072E-04     0.46    2.19526E-02   153.70
  -87.00     4.00     -54.71  -26.73  -26.72    0.01949   -88.01  LEFT      1.30399E-03     2.57    3.26938E-02   153.28
  -86.00     4.00     -52.69  -24.31  -24.30    0.02028   -88.15  LEFT      1.64695E-03     4.94    4.32253E-02   152.75
  -85.00     4.00     -51.18  -22.45  -22.45    0.02124   -88.29  LEFT      1.95973E-03     7.57    5.35126E-02   152.08
  -84.00     4.00     -49.97  -20.96  -20.96    0.02236   -88.43  LEFT      2.25043E-03    10.45    6.35260E-02   151.28
  -83.00     4.00     -48.97  -19.73  -19.72    0.02361   -88.56  LEFT      2.52670E-03    13.58    7.32418E-02   150.36
  -82.00     4.00     -48.09  -18.68  -18.67    0.02497   -88.69  LEFT      2.79589E-03    16.92    8.26429E-02   149.31
  -81.00     4.00     -47.29  -17.77  -17.77    0.02643   -88.83  LEFT      3.06509E-03    20.42    9.17197E-02   148.13
  -80.00     4.00     -46.54  -16.98  -16.97    0.02795   -88.97  LEFT      3.34098E-03    24.05    1.00470E-01   146.82
  -79.00     4.00     -45.82  -16.28  -16.27    0.02952   -89.11  LEFT      3.62977E-03    27.74    1.08901E-01   145.39
  -78.00     4.00     -45.12  -15.65  -15.65    0.03110   -89.27  LEFT      3.93699E-03    31.44    1.17024E-01   143.83
  -77.00     4.00     -44.42  -15.09  -15.09    0.03267   -89.42  LEFT      4.26738E-03    35.08    1.24863E-01   142.15
  -76.00     4.00     -43.72  -14.58  -14.57    0.03419   -89.59  LEFT      4.62477E-03    38.63    1.32446E-01   140.35
  -75.00     4.00     -43.02  -14.11  -14.10    0.03562   -89.77  LEFT      5.01202E-03    42.03    1.39808E-01   138.45
  -74.00     4.00     -42.32  -13.67  -13.67    0.03694   -89.96  LEFT      5.43104E-03    45.25    1.46989E-01   136.45
  -73.00     4.00     -41.63  -13.27  -13.26    0.03810    89.85  LEFT      5.88287E-03    48.28    1.54033E-01   134.35
  -72.00     4.00     -40.94  -12.88  -12.88    0.03907    89.65  LEFT      6.36771E-03    51.10    1.60988E-01   132.17
  -71.00     4.00     -40.26  -12.52  -12.51    0.03982    89.44  LEFT      6.88507E-03    53.70    1.67900E-01   129.93
  -70.00     4.00     -39.60  -12.17  -12.16    0.04033    89.23  LEFT      7.43387E-03    56.10    1.74815E-01   127.64
  -69.00     4.00     -38.94  -11.83  -11.82    0.04057    89.01  LEFT      8.01253E-03    58.29    1.81775E-01   125.31
  -68.00     4.00     -38.31  -11.50  -11.49    0.04053    88.80  LEFT      8.61904E-03    60.30    1.88819E-01   122.95
  -67.00     4.00     -37.70  -11.18  -11.17    0.04021    88.58  LEFT      9.25107E-03    62.13    1.95977E-01   120.60
  -66.00     4.00     -37.10  -10.86  -10.85    0.03963    88.38  LEFT      9.90600E-03    63.79    2.03272E-01   118.26
  -65.00     4.00     -36.53  -10.55  -10.54    0.03878    88.17  LEFT      1.05810E-02    65.31    2.10720E-01   115.94
  -64.00     4.00     -35.98  -10.24  -10.23    0.03771    87.98  LEFT      1.12730E-02    66.69    2.18324E-01   113.67
  -63.00     4.00     -35.45   -9.94   -9.92    0.03643    87.80  LEFT      1.19789E-02    67.95    2.26080E-01   111.46
  -62.00     4.00     -34.95   -9.64   -9.62    0.03497    87.62  LEFT      1.26952E-02    69.10    2.33974E-01   109.32
  -61.00     4.00     -34.47   -9.34   -9.33    0.03338    87.46  LEFT      1.34188E-02    70.16    2.41983E-01   107.25
  -60.00     4.00     -34.01   -9.06   -9.04    0.03168    87.32  LEFT      1.41459E-02    71.13    2.50076E-01   105.27
  -59.00     4.00     -33.57   -8.78   -8.77    0.02991    87.18  LEFT      1.48732E-02    72.02    2.58214E-01   103.39
  -58.00     4.00     -33.16   -8.51   -8.50    0.02809    87.06  LEFT      1.55970E-02    72.85    2.66355E-01   101.60
  -57.00     4.00     -32.77   -8.25   -8.24    0.02625    86.95  LEFT      1.63138E-02    73.62    2.74450E-01    99.91
  -56.00     4.00     -32.40   -8.00   -7.99    0.02442    86.85  LEFT      1.70201E-02    74.34    2.82446E-01    98.33
  -55.00     4.00     -32.05   -7.76   -7.75    0.02261    86.76  LEFT      1.77124E-02    75.02    2.90291E-01    96.85
  -54.00     4.00     -31.73   -7.54   -7.52    0.02084    86.68  LEFT      1.83872E-02    75.66    2.97928E-01    95.47
  -53.00     4.00     -31.43   -7.33   -7.31    0.01913    86.60  LEFT      1.90413E-02    76.27    3.05304E-01    94.19
  -52.00     4.00     -31.14   -7.13   -7.11    0.01747    86.54  LEFT      1.96714E-02    76.85    3.12365E-01    93.02
  -51.00     4.00     -30.88   -6.94   -6.93    0.01587    86.48  LEFT      2.02743E-02    77.42    3.19058E-01    91.94
  -50.00     4.00     -30.64   -6.77   -6.76    0.01435    86.43  LEFT      2.08473E-02    77.97    3.25336E-01    90.96
  -49.00     4.00     -30.42   -6.62   -6.60    0.01290    86.38  LEFT      2.13876E-02    78.51    3.31153E-01    90.08
  -48.00     4.00     -30.21   -6.48   -6.46    0.01152    86.34  LEFT      2.18926E-02    79.04    3.36467E-01    89.28
  -47.00     4.00     -30.03   -6.36   -6.34    0.01022    86.30  LEFT      2.23600E-02    79.57    3.41240E-01    88.58
  -46.00     4.00     -29.87   -6.25   -6.23    0.00899    86.26  LEFT      2.27878E-02    80.10    3.45442E-01    87.97
  -45.00     4.00     -29.72   -6.16   -6.14    0.00784    86.23  LEFT      2.31741E-02    80.63    3.49044E-01    87.44
  -44.00     4.00     -29.59   -6.09   -6.07    0.00675    86.20  LEFT      2.35176E-02    81.18    3.52025E-01    87.00
  -43.00     4.00     -29.48   -6.03   -6.01    0.00573    86.17  LEFT      2.38168E-02    81.73    3.54369E-01    86.65
  -42.00     4.00     -29.39   -5.99   -5.97    0.00477    86.14  LEFT      2.40709E-02    82.30    3.56066E-01    86.37
  -41.00     4.00     -29.32   -5.96   -5.94    0.00388    86.12  LEFT      2.42793E-02    82.89    3.57109E-01    86.18
  -40.00     4.00     -29.26   -5.95   -5.93    0.00305    86.09  LEFT      2.44418E-02    83.51    3.57501E-01    86.08
  -39.00     4.00     -29.22   -5.96   -5.94    0.00228    86.07  LEFT      2.45583E-02    84.14    3.57248E-01    86.05
  -38.00     4.00     -29.19   -5.98   -5.96    0.00156    86.05  LEFT      2.46294E-02    84.81    3.56362E-01    86.11
  -37.00     4.00     -29.18   -6.02   -6.00    0.00089    86.03  LEFT      2.46557E-02    85.51    3.54860E-01    86.25
  -36.00     4.00     -29.19   -6.07   -6.05    0.00028    86.00  LEFT      2.46384E-02    86.25    3.52768E-01    86.48
  -35.00     4.00     -29.21   -6.14   -6.11    0.00028    85.98  RIGHT     2.45788E-02    87.02    3.50112E-01    86.79
  -34.00     4.00     -29.24   -6.22   -6.19    0.00079    85.96  RIGHT     2.44789E-02    87.84    3.46928E-01    87.20
  -33.00     4.00     -29.29   -6.31   -6.29    0.00125    85.94  RIGHT     2.43408E-02    88.71    3.43253E-01    87.69
  -32.00     4.00     -29.36   -6.41   -6.39    0.00167    85.93  RIGHT     2.41668E-02    89.63    3.39132E-01    88.28
  -31.00     4.00     -29.43   -6.53   -6.51    0.00203    85.91  RIGHT     2.39599E-02    90.60    3.34612E-01    88.96
  -30.00     4.00     -29.52   -6.66   -6.63    0.00235    85.89  RIGHT     2.37230E-02    91.63    3.29748E-01    89.75
  -29.00     4.00     -29.61   -6.79   -6.77    0.00263    85.87  RIGHT     2.34597E-02    92.73    3.24595E-01    90.63
  -28.00     4.00     -29.72   -6.94   -6.92    0.00285    85.85  RIGHT     2.31736E-02    93.88    3.19214E-01    91.62
  -27.00     4.00     -29.84   -7.09   -7.07    0.00303    85.83  RIGHT     2.28686E-02    95.11    3.13669E-01    92.72
  -26.00     4.00     -29.96   -7.25   -7.23    0.00316    85.82  RIGHT     2.25489E-02    96.41    3.08027E-01    93.92
  -25.00     4.00     -30.09   -7.41   -7.39    0.00325    85.80  RIGHT     2.22188E-02    97.78    3.02357E-01    95.23
  -24.00     4.00     -30.22   -7.57   -7.55    0.00328    85.79  RIGHT     2.18827E-02    99.22    2.96731E-01    96.65
  -23.00     4.00     -30.35   -7.74   -7.71    0.00327    85.77  RIGHT     2.15453E-02   100.73    2.91220E-01    98.19
  -22.00     4.00     -30.49   -7.90   -7.87    0.00321    85.76  RIGHT     2.12110E-02   102.32    2.85896E-01    99.82
  -21.00     4.00     -30.62   -8.05   -8.03    0.00311    85.75  RIGHT     2.08846E-02   103.97    2.80828E-01   101.56
  -20.00     4.00     -30.76   -8.20   -8.18    0.00297    85.74  RIGHT     2.05704E-02   105.69    2.76086E-01   103.39
  -19.00     4.00     -30.88   -8.34   -8.31    0.00279    85.74  RIGHT     2.02727E-02   107.46    2.71733E-01   105.30
  -18.00     4.00     -31.00   -8.46   -8.44    0.00258    85.73  RIGHT     1.99955E-02   109.28    2.67827E-01   107.29
  -17.00     4.00     -31.11   -8.57   -8.55    0.00235    85.73  RIGHT     1.97423E-02   111.14    2.64420E-01   109.33
  -16.00     4.00     -31.21   -8.67   -8.64    0.00209    85.73  RIGHT     1.95165E-02   113.02    2.61553E-01   111.41
  -15.00     4.00     -31.30   -8.75   -8.72    0.00182    85.74  RIGHT     1.93205E-02   114.91    2.59260E-01   113.50
  -14.00     4.00     -31.37   -8.80   -8.78    0.00156    85.75  RIGHT     1.91565E-02   116.79    2.57563E-01   115.58
  -13.00     4.00     -31.43   -8.84   -8.82    0.00129    85.76  RIGHT     1.90259E-02   118.64    2.56472E-01   117.64
  -12.00     4.00     -31.48   -8.86   -8.83    0.00104    85.77  RIGHT     1.89296E-02   120.44    2.55988E-01   119.64
  -11.00     4.00     -31.51   -8.85   -8.83    0.00080    85.79  RIGHT     1.88677E-02   122.18    2.56099E-01   121.55
  -10.00     4.00     -31.52   -8.83   -8.81    0.00059    85.80  RIGHT     1.88397E-02   123.83    2.56784E-01   123.37
   -9.00     4.00     -31.52   -8.79   -8.76    0.00041    85.82  RIGHT     1.88449E-02   125.38    2.58015E-01   125.05
   -8.00     4.00     -31.50   -8.73   -8.71    0.00026    85.84  RIGHT     1.88818E-02   126.80    2.59758E-01   126.59
   -7.00     4.00     -31.47   -8.66   -8.63    0.00013    85.86  RIGHT     1.89488E-02   128.07    2.61973E-01   127.97
   -6.00     4.00     -31.43   -8.57   -8.55    0.00003    85.88  RIGHT     1.90441E-02   129.19    2.64621E-01   129.17
   -5.00     4.00     -31.37   -8.47   -8.45    0.00003    85.90  LEFT      1.91658E-02   130.15    2.67662E-01   130.17
   -4.00     4.00     -31.30   -8.36   -8.34    0.00007    85.92  LEFT      1.93121E-02   130.92    2.71060E-01   130.98
   -3.00     4.00     -31.23   -8.24   -8.22    0.00009    85.94  LEFT      1.94816E-02   131.50    2.74783E-01   131.57
   -2.00     4.00     -31.14   -8.11   -8.09    0.00008    85.96  LEFT      1.96730E-02   131.89    2.78809E-01   131.96
   -1.00     4.00     -31.05   -7.98   -7.96    0.00005    85.98  LEFT      1.98855E-02   132.07    2.83121E-01   132.12
    0.00     4.00     -30.95   -7.84   -7.82    0.00000    86.00  LINEAR    2.01189E-02   132.06    2.87714E-01   132.06
[...]
  -69.00   359.00     -51.01  -11.83  -11.83    0.01013   -89.76  RIGHT     1.99700E-03  -121.59    1.81791E-01   125.71
  -68.00   359.00     -50.38  -11.50  -11.50    0.01013   -89.70  RIGHT     2.14831E-03  -119.59    1.88791E-01   123.34
  -67.00   359.00     -49.76  -11.18  -11.18    0.01006   -89.65  RIGHT     2.30602E-03  -117.77    1.95908E-01   120.97
  -66.00   359.00     -49.17  -10.86  -10.86    0.00992   -89.60  RIGHT     2.46946E-03  -116.11    2.03165E-01   118.61
  -65.00   359.00     -48.60  -10.55  -10.55    0.00972   -89.55  RIGHT     2.63793E-03  -114.60    2.10577E-01   116.28
  -64.00   359.00     -48.04  -10.25  -10.24    0.00945   -89.50  RIGHT     2.81067E-03  -113.22    2.18150E-01   113.99
  -63.00   359.00     -47.52   -9.94   -9.94    0.00914   -89.45  RIGHT     2.98689E-03  -111.96    2.25880E-01   111.75
  -62.00   359.00     -47.01   -9.65   -9.64    0.00878   -89.41  RIGHT     3.16577E-03  -110.81    2.33754E-01   109.59
  -61.00   359.00     -46.53   -9.35   -9.35    0.00838   -89.37  RIGHT     3.34646E-03  -109.76    2.41748E-01   107.50
  -60.00   359.00     -46.07   -9.07   -9.07    0.00796   -89.33  RIGHT     3.52808E-03  -108.79    2.49832E-01   105.51
  -59.00   359.00     -45.63   -8.79   -8.79    0.00751   -89.30  RIGHT     3.70976E-03  -107.90    2.57967E-01   103.60
  -58.00   359.00     -45.22   -8.52   -8.52    0.00706   -89.27  RIGHT     3.89062E-03  -107.08    2.66111E-01   101.80
  -57.00   359.00     -44.83   -8.26   -8.26    0.00660   -89.24  RIGHT     4.06975E-03  -106.31    2.74213E-01   100.09
  -56.00   359.00     -44.46   -8.01   -8.01    0.00614   -89.21  RIGHT     4.24629E-03  -105.59    2.82223E-01    98.49
  -55.00   359.00     -44.11   -7.77   -7.77    0.00569   -89.19  RIGHT     4.41935E-03  -104.92    2.90084E-01    97.00
  -54.00   359.00     -43.79   -7.54   -7.54    0.00524   -89.17  RIGHT     4.58809E-03  -104.28    2.97743E-01    95.61
  -53.00   359.00     -43.48   -7.33   -7.33    0.00481   -89.15  RIGHT     4.75167E-03  -103.67    3.05144E-01    94.32
  -52.00   359.00     -43.20   -7.13   -7.13    0.00439   -89.14  RIGHT     4.90927E-03  -103.09    3.12233E-01    93.13
  -51.00   359.00     -42.94   -6.95   -6.94    0.00399   -89.12  RIGHT     5.06014E-03  -102.53    3.18958E-01    92.05
  -50.00   359.00     -42.69   -6.78   -6.77    0.00361   -89.11  RIGHT     5.20355E-03  -101.98    3.25268E-01    91.06
  -49.00   359.00     -42.47   -6.62   -6.62    0.00324   -89.10  RIGHT     5.33879E-03  -101.44    3.31119E-01    90.16
  -48.00   359.00     -42.27   -6.48   -6.48    0.00290   -89.08  RIGHT     5.46525E-03  -100.91    3.36468E-01    89.36
  -47.00   359.00     -42.08   -6.36   -6.36    0.00257   -89.07  RIGHT     5.58234E-03  -100.39    3.41277E-01    88.66
  -46.00   359.00     -41.92   -6.25   -6.25    0.00226   -89.07  RIGHT     5.68955E-03   -99.86    3.45515E-01    88.04
  -45.00   359.00     -41.77   -6.16   -6.16    0.00197   -89.06  RIGHT     5.78642E-03   -99.33    3.49153E-01    87.50
  -44.00   359.00     -41.64   -6.09   -6.08    0.00170   -89.05  RIGHT     5.87257E-03   -98.78    3.52169E-01    87.06
  -43.00   359.00     -41.53   -6.03   -6.03    0.00144   -89.04  RIGHT     5.94769E-03   -98.23    3.54547E-01    86.70
  -42.00   359.00     -41.44   -5.98   -5.98    0.00120   -89.04  RIGHT     6.01155E-03   -97.66    3.56276E-01    86.42
  -41.00   359.00     -41.37   -5.96   -5.96    0.00098   -89.03  RIGHT     6.06399E-03   -97.07    3.57352E-01    86.23
  -40.00   359.00     -41.31   -5.95   -5.95    0.00077   -89.02  RIGHT     6.10495E-03   -96.46    3.57773E-01    86.11
  -39.00   359.00     -41.26   -5.95   -5.95    0.00057   -89.02  RIGHT     6.13445E-03   -95.83    3.57549E-01    86.09
  -38.00   359.00     -41.24   -5.97   -5.97    0.00039   -89.01  RIGHT     6.15257E-03   -95.16    3.56689E-01    86.14
  -37.00   359.00     -41.23   -6.01   -6.01    0.00023   -89.01  RIGHT     6.15951E-03   -94.46    3.55213E-01    86.28
  -36.00   359.00     -41.23   -6.06   -6.06    0.00007   -89.00  RIGHT     6.15554E-03   -93.73    3.53143E-01    86.51
  -35.00   359.00     -41.26   -6.13   -6.13    0.00007   -89.00  LEFT      6.14102E-03   -92.95    3.50507E-01    86.82
  -34.00   359.00     -41.29   -6.21   -6.20    0.00020   -88.99  LEFT      6.11639E-03   -92.14    3.47341E-01    87.22
  -33.00   359.00     -41.34   -6.30   -6.30    0.00031   -88.99  LEFT      6.08220E-03   -91.27    3.43683E-01    87.71
  -32.00   359.00     -41.40   -6.40   -6.40    0.00042   -88.98  LEFT      6.03905E-03   -90.35    3.39576E-01    88.30
  -31.00   359.00     -41.48   -6.52   -6.52    0.00051   -88.98  LEFT      5.98765E-03   -89.38    3.35069E-01    88.98
  -30.00   359.00     -41.56   -6.64   -6.64    0.00059   -88.97  LEFT      5.92876E-03   -88.35    3.30215E-01    89.76
  -29.00   359.00     -41.66   -6.78   -6.78    0.00066   -88.97  LEFT      5.86325E-03   -87.26    3.25071E-01    90.65
  -28.00   359.00     -41.76   -6.93   -6.92    0.00072   -88.96  LEFT      5.79202E-03   -86.10    3.19697E-01    91.63
  -27.00   359.00     -41.88   -7.08   -7.08    0.00076   -88.96  LEFT      5.71606E-03   -84.87    3.14158E-01    92.73
  -26.00   359.00     -42.00   -7.23   -7.23    0.00079   -88.95  LEFT      5.63640E-03   -83.58    3.08521E-01    93.93
  -25.00   359.00     -42.13   -7.40   -7.39    0.00081   -88.95  LEFT      5.55413E-03   -82.21    3.02855E-01    95.24
  -24.00   359.00     -42.26   -7.56   -7.56    0.00082   -88.95  LEFT      5.47036E-03   -80.77    2.97231E-01    96.66
  -23.00   359.00     -42.39   -7.72   -7.72    0.00082   -88.94  LEFT      5.38623E-03   -79.26    2.91721E-01    98.19
  -22.00   359.00     -42.53   -7.88   -7.88    0.00081   -88.94  LEFT      5.30290E-03   -77.67    2.86398E-01    99.83
  -21.00   359.00     -42.66   -8.04   -8.03    0.00078   -88.94  LEFT      5.22151E-03   -76.02    2.81332E-01   101.57
  -20.00   359.00     -42.80   -8.18   -8.18    0.00075   -88.94  LEFT      5.14316E-03   -74.30    2.76590E-01   103.40
  -19.00   359.00     -42.92   -8.32   -8.32    0.00070   -88.93  LEFT      5.06892E-03   -72.53    2.72238E-01   105.31
  -18.00   359.00     -43.04   -8.45   -8.45    0.00065   -88.93  LEFT      4.99979E-03   -70.71    2.68333E-01   107.29
  -17.00   359.00     -43.15   -8.56   -8.56    0.00059   -88.93  LEFT      4.93668E-03   -68.85    2.64926E-01   109.33
  -16.00   359.00     -43.25   -8.65   -8.65    0.00052   -88.93  LEFT      4.88038E-03   -66.97    2.62061E-01   111.41
  -15.00   359.00     -43.34   -8.73   -8.73    0.00046   -88.93  LEFT      4.83154E-03   -65.09    2.59771E-01   113.50
  -14.00   359.00     -43.41   -8.79   -8.78    0.00039   -88.94  LEFT      4.79070E-03   -63.21    2.58077E-01   115.59
  -13.00   359.00     -43.47   -8.82   -8.82    0.00032   -88.94  LEFT      4.75821E-03   -61.36    2.56991E-01   117.64
  -12.00   359.00     -43.52   -8.84   -8.84    0.00026   -88.94  LEFT      4.73428E-03   -59.55    2.56512E-01   119.64
  -11.00   359.00     -43.54   -8.83   -8.83    0.00020   -88.95  LEFT      4.71895E-03   -57.81    2.56629E-01   121.56
  -10.00   359.00     -43.56   -8.81   -8.81    0.00015   -88.95  LEFT      4.71211E-03   -56.16    2.57321E-01   123.37
   -9.00   359.00     -43.55   -8.77   -8.77    0.00010   -88.96  LEFT      4.71355E-03   -54.62    2.58561E-01   125.05
   -8.00   359.00     -43.54   -8.71   -8.71    0.00006   -88.96  LEFT      4.72293E-03   -53.20    2.60312E-01   126.59
   -7.00   359.00     -43.51   -8.64   -8.64    0.00003   -88.97  LEFT      4.73984E-03   -51.92    2.62538E-01   127.97
   -6.00   359.00     -43.46   -8.55   -8.55    0.00001   -88.97  LINEAR    4.76382E-03   -50.80    2.65196E-01   129.17
   -5.00   359.00     -43.41   -8.45   -8.45    0.00001   -88.98  LINEAR    4.79441E-03   -49.85    2.68249E-01   130.17
   -4.00   359.00     -43.34   -8.34   -8.34    0.00002   -88.98  RIGHT     4.83116E-03   -49.08    2.71660E-01   130.98
   -3.00   359.00     -43.26   -8.22   -8.22    0.00002   -88.99  RIGHT     4.87370E-03   -48.50    2.75397E-01   131.58
   -2.00   359.00     -43.18   -8.09   -8.09    0.00002   -88.99  RIGHT     4.92172E-03   -48.11    2.79437E-01   131.96
   -1.00   359.00     -43.08   -7.96   -7.96    0.00001   -89.00  RIGHT     4.97502E-03   -47.93    2.83764E-01   132.12
    0.00   359.00     -42.98   -7.82   -7.82    0.00000   -89.00  LINEAR    5.03356E-03   -47.94    2.88372E-01   132.06
  -90.00   360.00    -999.99 -999.99 -999.99    0.00000     0.00            5.31079E-21  -121.69    3.25692E-12   -25.33
  -89.00   360.00    -999.99  -36.12  -36.12    0.00000   -90.00  LINEAR    1.69566E-11    59.97    1.10883E-02   154.51
  -88.00   360.00    -999.99  -30.15  -30.15    0.00000   -90.00  LINEAR    3.17895E-11    61.87    2.20464E-02   154.23
  -87.00   360.00    -999.99  -26.69  -26.69    0.00000    90.00  LINEAR    4.48745E-11    64.03    3.28316E-02   153.81
  -86.00   360.00    -999.99  -24.27  -24.27    0.00000    90.00  LINEAR    5.65321E-11    66.47    4.34042E-02   153.28
  -85.00   360.00    -999.99  -22.42  -22.42    0.00000    90.00  LINEAR    6.70483E-11    69.19    5.37287E-02   152.61
  -84.00   360.00    -199.33  -20.93  -20.93    0.00000    90.00  LINEAR    7.66871E-11    72.18    6.37747E-02   151.82
  -83.00   360.00    -198.36  -19.69  -19.69    0.00000    90.00  LINEAR    8.56976E-11    75.43    7.35178E-02   150.89
  -82.00   360.00    -197.53  -18.64  -18.64    0.00000    90.00  LINEAR    9.43175E-11    78.92    8.29405E-02   149.84
  -81.00   360.00    -196.78  -17.74  -17.74    0.00000    90.00  LINEAR    1.02771E-10    82.58    9.20325E-02   148.66
  -80.00   360.00    -196.09  -16.95  -16.95    0.00000    90.00  LINEAR    1.11267E-10    86.39    1.00792E-01   147.35
  -79.00   360.00    -195.44  -16.25  -16.25    0.00000    90.00  LINEAR    1.19992E-10    90.27    1.09223E-01   145.91
  -78.00   360.00    -194.80  -15.63  -15.63    0.00000    90.00  LINEAR    1.29102E-10    94.18    1.17342E-01   144.35
  -77.00   360.00    -194.18  -15.07  -15.07    0.00000    90.00  LINEAR    1.38724E-10    98.05    1.25168E-01   142.67
  -76.00   360.00    -193.56  -14.56  -14.56    0.00000    90.00  LINEAR    1.48949E-10   101.83    1.32732E-01   140.87
  -75.00   360.00    -192.95  -14.09  -14.09    0.00000    90.00  LINEAR    1.59829E-10   105.48    1.40068E-01   138.96
  -74.00   360.00    -192.34  -13.66  -13.66    0.00000    90.00  LINEAR    1.71385E-10   108.96    1.47218E-01   136.95
  -73.00   360.00    -191.74  -13.26  -13.26    0.00000    90.00  LINEAR    1.83604E-10   112.26    1.54226E-01   134.84
  -72.00   360.00    -191.16  -12.88  -12.88    0.00000    90.00  LINEAR    1.96446E-10   115.35    1.61140E-01   132.65
  -71.00   360.00    -190.58  -12.51  -12.51    0.00000    90.00  LINEAR    2.09852E-10   118.25    1.68008E-01   130.40
  -70.00   360.00    -190.03  -12.17  -12.17    0.00000    90.00  LINEAR    2.23743E-10   120.94    1.74878E-01   128.09
  -69.00   360.00    -189.49  -11.83  -11.83    0.00000    90.00  LINEAR    2.38027E-10   123.43    1.81792E-01   125.74
  -68.00   360.00    -188.97  -11.50  -11.50    0.00000    90.00  LINEAR    2.52605E-10   125.74    1.88790E-01   123.37
  -67.00   360.00    -188.48  -11.18  -11.18    0.00000    90.00  LINEAR    2.67372E-10   127.87    1.95904E-01   121.00
  -66.00   360.00    -188.01  -10.86  -10.86    0.00000    90.00  LINEAR    2.82218E-10   129.85    2.03158E-01   118.63
  -65.00   360.00    -187.56  -10.55  -10.55    0.00000    90.00  LINEAR    2.97036E-10   131.68    2.10567E-01   116.30
  -64.00   360.00    -187.15  -10.25  -10.25    0.00000    90.00  LINEAR    3.11718E-10   133.38    2.18139E-01   114.01
  -63.00   360.00    -186.75   -9.94   -9.94    0.00000    90.00  LINEAR    3.26159E-10   134.96    2.25867E-01   111.77
  -62.00   360.00    -186.38   -9.65   -9.65    0.00000    90.00  LINEAR    3.40259E-10   136.43    2.33739E-01   109.61
  -61.00   360.00    -186.04   -9.35   -9.35    0.00000    90.00  LINEAR    3.53922E-10   137.80    2.41732E-01   107.52
  -60.00   360.00    -185.73   -9.07   -9.07    0.00000    90.00  LINEAR    3.67057E-10   139.09    2.49815E-01   105.52
  -59.00   360.00    -185.43   -8.79   -8.79    0.00000    90.00  LINEAR    3.79582E-10   140.30    2.57951E-01   103.62
  -58.00   360.00    -185.17   -8.52   -8.52    0.00000    90.00  LINEAR    3.91420E-10   141.44    2.66094E-01   101.81
  -57.00   360.00    -184.92   -8.26   -8.26    0.00000    90.00  LINEAR    4.02500E-10   142.52    2.74197E-01   100.11
  -56.00   360.00    -184.71   -8.01   -8.01    0.00000    90.00  LINEAR    4.12761E-10   143.55    2.82208E-01    98.51
  -55.00   360.00    -184.51   -7.77   -7.77    0.00000    90.00  LINEAR    4.22150E-10   144.53    2.90071E-01    97.01
  -54.00   360.00    -184.34   -7.54   -7.54    0.00000    90.00  LINEAR    4.30618E-10   145.47    2.97731E-01    95.62
  -53.00   360.00    -184.19   -7.33   -7.33    0.00000    90.00  LINEAR    4.38129E-10   146.37    3.05134E-01    94.33
  -52.00   360.00    -184.06   -7.13   -7.13    0.00000    90.00  LINEAR    4.44651E-10   147.25    3.12224E-01    93.14
  -51.00   360.00    -183.95   -6.95   -6.95    0.00000    90.00  LINEAR    4.50162E-10   148.10    3.18951E-01    92.05
  -50.00   360.00    -183.87   -6.78   -6.78    0.00000    90.00  LINEAR    4.54647E-10   148.93    3.25263E-01    91.06
  -49.00   360.00    -183.80   -6.62   -6.62    0.00000    90.00  LINEAR    4.58098E-10   149.74    3.31116E-01    90.17
  -48.00   360.00    -183.76   -6.48   -6.48    0.00000    90.00  LINEAR    4.60516E-10   150.54    3.36468E-01    89.37
  -47.00   360.00    -183.73   -6.36   -6.36    0.00000    90.00  LINEAR    4.61907E-10   151.34    3.41280E-01    88.66
  -46.00   360.00    -183.72   -6.25   -6.25    0.00000    90.00  LINEAR    4.62285E-10   152.12    3.45519E-01    88.04
  -45.00   360.00    -183.73   -6.16   -6.16    0.00000    90.00  LINEAR    4.61670E-10   152.91    3.49160E-01    87.51
  -44.00   360.00    -183.76   -6.09   -6.09    0.00000    90.00  LINEAR    4.60088E-10   153.70    3.52178E-01    87.06
  -43.00   360.00    -183.81   -6.03   -6.03    0.00000    90.00  LINEAR    4.57572E-10   154.50    3.54559E-01    86.70
  -42.00   360.00    -183.88   -5.98   -5.98    0.00000    90.00  LINEAR    4.54158E-10   155.30    3.56290E-01    86.42
  -41.00   360.00    -183.96   -5.96   -5.96    0.00000    90.00  LINEAR    4.49888E-10   156.12    3.57368E-01    86.23
  -40.00   360.00    -184.06   -5.95   -5.95    0.00000    90.00  LINEAR    4.44810E-10   156.96    3.57792E-01    86.12
  -39.00   360.00    -184.17   -5.95   -5.95    0.00000    90.00  LINEAR    4.38972E-10   157.81    3.57569E-01    86.09
  -38.00   360.00    -184.30   -5.97   -5.97    0.00000    90.00  LINEAR    4.32430E-10   158.69    3.56711E-01    86.14
  -37.00   360.00    -184.45   -6.01   -6.01    0.00000    90.00  LINEAR    4.25240E-10   159.60    3.55236E-01    86.28
  -36.00   360.00    -184.61   -6.06   -6.06    0.00000    90.00  LINEAR    4.17462E-10   160.53    3.53167E-01    86.51
  -35.00   360.00    -184.78   -6.13   -6.13    0.00000    90.00  LINEAR    4.09160E-10   161.50    3.50534E-01    86.82
  -34.00   360.00    -184.97   -6.20   -6.20    0.00000    90.00  LINEAR    4.00397E-10   162.51    3.47369E-01    87.22
  -33.00   360.00    -185.17   -6.30   -6.30    0.00000    90.00  LINEAR    3.91239E-10   163.56    3.43712E-01    87.72
  -32.00   360.00    -185.38   -6.40   -6.40    0.00000    90.00  LINEAR    3.81752E-10   164.65    3.39606E-01    88.30
  -31.00   360.00    -185.61   -6.52   -6.52    0.00000    90.00  LINEAR    3.72005E-10   165.80    3.35100E-01    88.98
  -30.00   360.00    -185.84   -6.64   -6.64    0.00000    90.00  LINEAR    3.62065E-10   167.00    3.30246E-01    89.76
  -29.00   360.00    -186.09   -6.78   -6.78    0.00000    90.00  LINEAR    3.52001E-10   168.25    3.25103E-01    90.65
  -28.00   360.00    -186.34   -6.92   -6.92    0.00000    90.00  LINEAR    3.41879E-10   169.57    3.19729E-01    91.63
  -27.00   360.00    -186.60   -7.08   -7.08    0.00000    90.00  LINEAR    3.31766E-10   170.95    3.14191E-01    92.73
  -26.00   360.00    -186.87   -7.23   -7.23    0.00000    90.00  LINEAR    3.21727E-10   172.39    3.08554E-01    93.93
  -25.00   360.00    -187.14   -7.39   -7.39    0.00000    90.00  LINEAR    3.11824E-10   173.90    3.02888E-01    95.24
  -24.00   360.00    -187.42   -7.56   -7.56    0.00000    90.00  LINEAR    3.02120E-10   175.48    2.97264E-01    96.66
  -23.00   360.00    -187.69   -7.72   -7.72    0.00000    90.00  LINEAR    2.92670E-10   177.12    2.91755E-01    98.19
  -22.00   360.00    -187.97   -7.88   -7.88    0.00000    90.00  LINEAR    2.83531E-10   178.84    2.86432E-01    99.83
  -21.00   360.00    -188.24   -8.03   -8.03    0.00000    90.00  LINEAR    2.74751E-10  -179.39    2.81365E-01   101.57
  -20.00   360.00    -188.51   -8.18   -8.18    0.00000    90.00  LINEAR    2.66375E-10  -177.55    2.76624E-01   103.40
  -19.00   360.00    -188.77   -8.32   -8.32    0.00000    90.00  LINEAR    2.58443E-10  -175.66    2.72271E-01   105.31
  -18.00   360.00    -189.03   -8.45   -8.45    0.00000    90.00  LINEAR    2.50988E-10  -173.73    2.68366E-01   107.30
  -17.00   360.00    -189.27   -8.56   -8.56    0.00000    90.00  LINEAR    2.44036E-10  -171.76    2.64960E-01   109.33
  -16.00   360.00    -189.50   -8.65   -8.65    0.00000    90.00  LINEAR    2.37605E-10  -169.78    2.62095E-01   111.41
  -15.00   360.00    -189.72   -8.73   -8.73    0.00000    90.00  LINEAR    2.31708E-10  -167.79    2.59805E-01   113.50
  -14.00   360.00    -189.92   -8.78   -8.78    0.00000    90.00  LINEAR    2.26346E-10  -165.82    2.58111E-01   115.59
  -13.00   360.00    -190.11   -8.82   -8.82    0.00000    90.00  LINEAR    2.21517E-10  -163.87    2.57025E-01   117.64
  -12.00   360.00    -190.28   -8.84   -8.84    0.00000    90.00  LINEAR    2.17206E-10  -161.98    2.56546E-01   119.64
  -11.00   360.00    -190.44   -8.83   -8.83    0.00000    90.00  LINEAR    2.13397E-10  -160.15    2.56664E-01   121.56
  -10.00   360.00    -190.57   -8.81   -8.81    0.00000    90.00  LINEAR    2.10065E-10  -158.42    2.57357E-01   123.37
   -9.00   360.00    -190.69   -8.77   -8.77    0.00000    90.00  LINEAR    2.07181E-10  -156.80    2.58597E-01   125.05
   -8.00   360.00    -190.80   -8.71   -8.71    0.00000    90.00  LINEAR    2.04713E-10  -155.30    2.60349E-01   126.60
   -7.00   360.00    -190.89   -8.64   -8.64    0.00000    90.00  LINEAR    2.02627E-10  -153.95    2.62575E-01   127.97
   -6.00   360.00    -190.96   -8.55   -8.55    0.00000    90.00  LINEAR    2.00891E-10  -152.76    2.65235E-01   129.17
   -5.00   360.00    -191.02   -8.45   -8.45    0.00000    90.00  LINEAR    1.99471E-10  -151.74    2.68289E-01   130.18
   -4.00   360.00    -191.07   -8.34   -8.34    0.00000    90.00  LINEAR    1.98338E-10  -150.90    2.71700E-01   130.98
   -3.00   360.00    -191.11   -8.22   -8.22    0.00000    90.00  LINEAR    1.97466E-10  -150.26    2.75438E-01   131.58
   -2.00   360.00    -191.14   -8.09   -8.09    0.00000    90.00  LINEAR    1.96833E-10  -149.81    2.79479E-01   131.96
   -1.00   360.00    -191.16   -7.96   -7.96    0.00000    90.00  LINEAR    1.96423E-10  -149.57    2.83806E-01   132.12
    0.00   360.00    -191.17   -7.82   -7.82    0.00000    90.00  LINEAR    1.96227E-10  -149.53    2.88416E-01   132.06


   AVERAGE POWER GAIN= 1.58218E+00       SOLID ANGLE USED IN AVERAGING=( 2.0000)*PI STERADIANS.








 ***** DATA CARD NO.  5   EN   0    91   361  1003 -9.00000E+01  0.00000E+00  1.00000E+00  1.00000E+00  0.00000E+00  0.00000E+00

 RUN TIME =     2.078
