1



                                 *********************************************

                                    NUMERICAL ELECTROMAGNETICS CODE (NEC-2D)

                                 *********************************************




                                     - - - - COMMENTS - - - -


                                                                                                     




                                 - - - STRUCTURE SPECIFICATION - - -

                                     COORDINATES MUST BE INPUT IN
                                     METERS OR BE SCALED TO METERS
                                     BEFORE STRUCTURE INPUT IS ENDED


  WIRE                                                                               NO. OF    FIRST  LAST     TAG
  NO.        X1         Y1         Z1          X2         Y2         Z2      RADIUS   SEG.     SEG.   SEG.     NO.
     1    0.00000    0.00000    0.00000     0.00000    0.00000    0.02500    0.00041      7        1     7       1

   TOTAL SEGMENTS USED=    7     NO. SEG. IN A SYMMETRIC CELL=    7     SYMMETRY FLAG=  0


         - MULTIPLE WIRE JUNCTIONS -
 JUNCTION    SEGMENTS  (- FOR END 1, + FOR END 2)
  NONE




                                 - - - - SEGMENTATION DATA - - - -

                                        COORDINATES IN METERS

                         I+ AND I- INDICATE THE SEGMENTS BEFORE AND AFTER I


  SEG.   COORDINATES OF SEG. CENTER     SEG.     ORIENTATION ANGLES    WIRE    CONNECTION DATA   TAG
  NO.       X         Y         Z       LENGTH     ALPHA     BETA      RADIUS    I-   I    I+    NO.
     1   0.00000   0.00000   0.00179   0.00357   90.00000   0.00000   0.00041     0    1    2      1
     2   0.00000   0.00000   0.00536   0.00357   90.00000   0.00000   0.00041     1    2    3      1
     3   0.00000   0.00000   0.00893   0.00357   90.00000   0.00000   0.00041     2    3    4      1
     4   0.00000   0.00000   0.01250   0.00357   90.00000   0.00000   0.00041     3    4    5      1
     5   0.00000   0.00000   0.01607   0.00357   90.00000   0.00000   0.00041     4    5    6      1
     6   0.00000   0.00000   0.01964   0.00357   90.00000   0.00000   0.00041     5    6    7      1
     7   0.00000   0.00000   0.02321   0.00357   90.00000   0.00000   0.00041     6    7    0      1






 ***** DATA CARD NO.  1   EX   0     1     4     0  1.00000E+00  0.00000E+00  0.00000E+00  0.00000E+00  0.00000E+00  0.00000E+00
 ***** DATA CARD NO.  2   GN  -1     0     0     0  0.00000E+00  0.00000E+00  0.00000E+00  0.00000E+00  0.00000E+00  0.00000E+00
 ***** DATA CARD NO.  3   FR   0     1     0     0  2.40000E+03  0.00000E+00  0.00000E+00  0.00000E+00  0.00000E+00  0.00000E+00
 ***** DATA CARD NO.  4   RP   0    37    73  1003 -1.80000E+02  0.00000E+00  5.00000E+00  5.00000E+00  0.00000E+00  0.00000E+00




                                 - - - - - - FREQUENCY - - - - - -

                                    FREQUENCY= 2.4000E+03 MHZ
                                    WAVELENGTH= 1.2492E-01 METERS




                    APPROXIMATE INTEGRATION EMPLOYED FOR SEGMENTS MORE THAN   1.000 WAVELENGTHS APART



                               - - - STRUCTURE IMPEDANCE LOADING - - -

                                   THIS STRUCTURE IS NOT LOADED



                                  - - - ANTENNA ENVIRONMENT - - -

                                            FREE SPACE



                                - - - MATRIX TIMING - - -

                        FILL=    0.000 SEC.,  FACTOR=    0.000 SEC.



                                          - - - ANTENNA INPUT PARAMETERS - - -

   TAG   SEG.    VOLTAGE (VOLTS)         CURRENT (AMPS)         IMPEDANCE (OHMS)        ADMITTANCE (MHOS)      POWER
   NO.   NO.    REAL        IMAG.       REAL        IMAG.       REAL        IMAG.       REAL        IMAG.     (WATTS)
     1     4 1.00000E+00 0.00000E+00 5.28240E-05 2.35745E-03 9.50012E+00-4.23975E+02 5.28240E-05 2.35745E-03 2.64120E-05



                             - - - CURRENTS AND LOCATION - - -

                                 DISTANCES IN WAVELENGTHS


  SEG.  TAG    COORD. OF SEG. CENTER     SEG.            - - - CURRENT (AMPS) - - -
  NO.   NO.     X        Y        Z      LENGTH     REAL        IMAG.       MAG.        PHASE
     1    1   0.0000   0.0000   0.0143  0.02859   1.9071E-05  4.9078E-04  4.9115E-04   87.775
     2    1   0.0000   0.0000   0.0429  0.02859   3.8706E-05  1.1447E-03  1.1453E-03   88.063
     3    1   0.0000   0.0000   0.0715  0.02859   4.9320E-05  1.7684E-03  1.7690E-03   88.402
     4    1   0.0000   0.0000   0.1001  0.02859   5.2824E-05  2.3574E-03  2.3580E-03   88.716
     5    1   0.0000   0.0000   0.1287  0.02859   4.9320E-05  1.7684E-03  1.7690E-03   88.402
     6    1   0.0000   0.0000   0.1572  0.02859   3.8706E-05  1.1447E-03  1.1453E-03   88.063
     7    1   0.0000   0.0000   0.1858  0.02859   1.9071E-05  4.9078E-04  4.9115E-04   87.775



                                        - - - POWER BUDGET - - -

                                           INPUT POWER   = 2.6412E-05 WATTS
                                           RADIATED POWER= 2.6412E-05 WATTS
                                           STRUCTURE LOSS= 0.0000E+00 WATTS
                                           NETWORK LOSS  = 0.0000E+00 WATTS
                                           EFFICIENCY    = 100.00 PERCENT



                                                - - - RADIATION PATTERNS - - -

  - - ANGLES - -           - POWER GAINS -       - - - POLARIZATION - - -    - - - E(THETA) - - -    - - - E(PHI) - - -
  THETA     PHI        VERT.   HOR.    TOTAL      AXIAL     TILT   SENSE     MAGNITUDE    PHASE      MAGNITUDE    PHASE 
 DEGREES  DEGREES       DB      DB      DB        RATIO     DEG.              VOLTS/M    DEGREES      VOLTS/M    DEGREES
 -180.00     0.00    -999.99 -999.99 -999.99    0.00000     0.00            4.81580E-13   142.32    0.00000E+00     0.00
 -175.00     0.00     -19.71 -999.99  -19.71    0.00000     0.00  LINEAR    4.11335E-03   -37.54    0.00000E+00     0.00
 -170.00     0.00     -13.72 -999.99  -13.72    0.00000     0.00  LINEAR    8.20221E-03   -37.13    0.00000E+00     0.00
 -165.00     0.00     -10.24 -999.99  -10.24    0.00000     0.00  LINEAR    1.22419E-02   -36.45    0.00000E+00     0.00
 -160.00     0.00      -7.80 -999.99   -7.80    0.00000     0.00  LINEAR    1.62070E-02   -35.50    0.00000E+00     0.00
 -155.00     0.00      -5.94 -999.99   -5.94    0.00000     0.00  LINEAR    2.00718E-02   -34.30    0.00000E+00     0.00
 -150.00     0.00      -4.46 -999.99   -4.46    0.00000     0.00  LINEAR    2.38095E-02   -32.85    0.00000E+00     0.00
 -145.00     0.00      -3.24 -999.99   -3.24    0.00000     0.00  LINEAR    2.73927E-02   -31.16    0.00000E+00     0.00
 -140.00     0.00      -2.23 -999.99   -2.23    0.00000     0.00  LINEAR    3.07932E-02   -29.25    0.00000E+00     0.00
 -135.00     0.00      -1.37 -999.99   -1.37    0.00000     0.00  LINEAR    3.39828E-02   -27.13    0.00000E+00     0.00
 -130.00     0.00      -0.65 -999.99   -0.65    0.00000     0.00  LINEAR    3.69329E-02   -24.81    0.00000E+00     0.00
 -125.00     0.00      -0.04 -999.99   -0.04    0.00000     0.00  LINEAR    3.96156E-02   -22.32    0.00000E+00     0.00
 -120.00     0.00       0.47 -999.99    0.47    0.00000     0.00  LINEAR    4.20040E-02   -19.67    0.00000E+00     0.00
 -115.00     0.00       0.89 -999.99    0.89    0.00000     0.00  LINEAR    4.40731E-02   -16.89    0.00000E+00     0.00
 -110.00     0.00       1.22 -999.99    1.22    0.00000     0.00  LINEAR    4.57999E-02   -13.98    0.00000E+00     0.00
 -105.00     0.00       1.48 -999.99    1.48    0.00000     0.00  LINEAR    4.71647E-02   -10.99    0.00000E+00     0.00
 -100.00     0.00       1.66 -999.99    1.66    0.00000     0.00  LINEAR    4.81516E-02    -7.92    0.00000E+00     0.00
  -95.00     0.00       1.76 -999.99    1.76    0.00000     0.00  LINEAR    4.87486E-02    -4.80    0.00000E+00     0.00
  -90.00     0.00       1.80 -999.99    1.80    0.00000     0.00  LINEAR    4.89484E-02    -1.66    0.00000E+00     0.00
  -85.00     0.00       1.76 -999.99    1.76    0.00000     0.00  LINEAR    4.87486E-02     1.48    0.00000E+00     0.00
  -80.00     0.00       1.66 -999.99    1.66    0.00000     0.00  LINEAR    4.81516E-02     4.59    0.00000E+00     0.00
  -75.00     0.00       1.48 -999.99    1.48    0.00000     0.00  LINEAR    4.71647E-02     7.66    0.00000E+00     0.00
  -70.00     0.00       1.22 -999.99    1.22    0.00000     0.00  LINEAR    4.57999E-02    10.66    0.00000E+00     0.00
  -65.00     0.00       0.89 -999.99    0.89    0.00000     0.00  LINEAR    4.40731E-02    13.56    0.00000E+00     0.00
  -60.00     0.00       0.47 -999.99    0.47    0.00000     0.00  LINEAR    4.20040E-02    16.35    0.00000E+00     0.00
  -55.00     0.00      -0.04 -999.99   -0.04    0.00000     0.00  LINEAR    3.96156E-02    19.00    0.00000E+00     0.00
  -50.00     0.00      -0.65 -999.99   -0.65    0.00000     0.00  LINEAR    3.69329E-02    21.50    0.00000E+00     0.00
  -45.00     0.00      -1.37 -999.99   -1.37    0.00000     0.00  LINEAR    3.39828E-02    23.82    0.00000E+00     0.00
  -40.00     0.00      -2.23 -999.99   -2.23    0.00000     0.00  LINEAR    3.07932E-02    25.94    0.00000E+00     0.00
  -35.00     0.00      -3.24 -999.99   -3.24    0.00000     0.00  LINEAR    2.73927E-02    27.85    0.00000E+00     0.00
  -30.00     0.00      -4.46 -999.99   -4.46    0.00000     0.00  LINEAR    2.38095E-02    29.54    0.00000E+00     0.00
  -25.00     0.00      -5.94 -999.99   -5.94    0.00000     0.00  LINEAR    2.00718E-02    31.00    0.00000E+00     0.00
  -20.00     0.00      -7.80 -999.99   -7.80    0.00000     0.00  LINEAR    1.62070E-02    32.20    0.00000E+00     0.00
  -15.00     0.00     -10.24 -999.99  -10.24    0.00000     0.00  LINEAR    1.22419E-02    33.14    0.00000E+00     0.00
  -10.00     0.00     -13.72 -999.99  -13.72    0.00000     0.00  LINEAR    8.20221E-03    33.83    0.00000E+00     0.00
   -5.00     0.00     -19.71 -999.99  -19.71    0.00000     0.00  LINEAR    4.11335E-03    34.24    0.00000E+00     0.00
    0.00     0.00    -999.99 -999.99 -999.99    0.00000     0.00            0.00000E+00     0.00    0.00000E+00     0.00
 -180.00     5.00    -999.99 -999.99 -999.99    0.00000     0.00            4.81580E-13   142.32    0.00000E+00     0.00
 -175.00     5.00     -19.71 -999.99  -19.71    0.00000     0.00  LINEAR    4.11335E-03   -37.54    0.00000E+00     0.00
 -170.00     5.00     -13.72 -999.99  -13.72    0.00000     0.00  LINEAR    8.20221E-03   -37.13    0.00000E+00     0.00
 -165.00     5.00     -10.24 -999.99  -10.24    0.00000     0.00  LINEAR    1.22419E-02   -36.45    0.00000E+00     0.00
 -160.00     5.00      -7.80 -999.99   -7.80    0.00000     0.00  LINEAR    1.62070E-02   -35.50    0.00000E+00     0.00
 -155.00     5.00      -5.94 -999.99   -5.94    0.00000     0.00  LINEAR    2.00718E-02   -34.30    0.00000E+00     0.00
 -150.00     5.00      -4.46 -999.99   -4.46    0.00000     0.00  LINEAR    2.38095E-02   -32.85    0.00000E+00     0.00
 -145.00     5.00      -3.24 -999.99   -3.24    0.00000     0.00  LINEAR    2.73927E-02   -31.16    0.00000E+00     0.00
 -140.00     5.00      -2.23 -999.99   -2.23    0.00000     0.00  LINEAR    3.07932E-02   -29.25    0.00000E+00     0.00
 -135.00     5.00      -1.37 -999.99   -1.37    0.00000     0.00  LINEAR    3.39828E-02   -27.13    0.00000E+00     0.00
 -130.00     5.00      -0.65 -999.99   -0.65    0.00000     0.00  LINEAR    3.69329E-02   -24.81    0.00000E+00     0.00
 -125.00     5.00      -0.04 -999.99   -0.04    0.00000     0.00  LINEAR    3.96156E-02   -22.32    0.00000E+00     0.00
 -120.00     5.00       0.47 -999.99    0.47    0.00000     0.00  LINEAR    4.20040E-02   -19.67    0.00000E+00     0.00
 -115.00     5.00       0.89 -999.99    0.89    0.00000     0.00  LINEAR    4.40731E-02   -16.89    0.00000E+00     0.00
 -110.00     5.00       1.22 -999.99    1.22    0.00000     0.00  LINEAR    4.57999E-02   -13.98    0.00000E+00     0.00
 -105.00     5.00       1.48 -999.99    1.48    0.00000     0.00  LINEAR    4.71647E-02   -10.99    0.00000E+00     0.00
 -100.00     5.00       1.66 -999.99    1.66    0.00000     0.00  LINEAR    4.81516E-02    -7.92    0.00000E+00     0.00
  -95.00     5.00       1.76 -999.99    1.76    0.00000     0.00  LINEAR    4.87486E-02    -4.80    0.00000E+00     0.00
  -90.00     5.00       1.80 -999.99    1.80    0.00000     0.00  LINEAR    4.89484E-02    -1.66    0.00000E+00     0.00
  -85.00     5.00       1.76 -999.99    1.76    0.00000     0.00  LINEAR    4.87486E-02     1.48    0.00000E+00     0.00
  -80.00     5.00       1.66 -999.99    1.66    0.00000     0.00  LINEAR    4.81516E-02     4.59    0.00000E+00     0.00
  -75.00     5.00       1.48 -999.99    1.48    0.00000     0.00  LINEAR    4.71647E-02     7.66    0.00000E+00     0.00
  -70.00     5.00       1.22 -999.99    1.22    0.00000     0.00  LINEAR    4.57999E-02    10.66    0.00000E+00     0.00
  -65.00     5.00       0.89 -999.99    0.89    0.00000     0.00  LINEAR    4.40731E-02    13.56    0.00000E+00     0.00
  -60.00     5.00       0.47 -999.99    0.47    0.00000     0.00  LINEAR    4.20040E-02    16.35    0.00000E+00     0.00
  -55.00     5.00      -0.04 -999.99   -0.04    0.00000     0.00  LINEAR    3.96156E-02    19.00    0.00000E+00     0.00
  -50.00     5.00      -0.65 -999.99   -0.65    0.00000     0.00  LINEAR    3.69329E-02    21.50    0.00000E+00     0.00
  -45.00     5.00      -1.37 -999.99   -1.37    0.00000     0.00  LINEAR    3.39828E-02    23.82    0.00000E+00     0.00
  -40.00     5.00      -2.23 -999.99   -2.23    0.00000     0.00  LINEAR    3.07932E-02    25.94    0.00000E+00     0.00
  -35.00     5.00      -3.24 -999.99   -3.24    0.00000     0.00  LINEAR    2.73927E-02    27.85    0.00000E+00     0.00
  -30.00     5.00      -4.46 -999.99   -4.46    0.00000     0.00  LINEAR    2.38095E-02    29.54    0.00000E+00     0.00
  -25.00     5.00      -5.94 -999.99   -5.94    0.00000     0.00  LINEAR    2.00718E-02    31.00    0.00000E+00     0.00
  -20.00     5.00      -7.80 -999.99   -7.80    0.00000     0.00  LINEAR    1.62070E-02    32.20    0.00000E+00     0.00
  -15.00     5.00     -10.24 -999.99  -10.24    0.00000     0.00  LINEAR    1.22419E-02    33.14    0.00000E+00     0.00
  -10.00     5.00     -13.72 -999.99  -13.72    0.00000     0.00  LINEAR    8.20221E-03    33.83    0.00000E+00     0.00
   -5.00     5.00     -19.71 -999.99  -19.71    0.00000     0.00  LINEAR    4.11335E-03    34.24    0.00000E+00     0.00
    0.00     5.00    -999.99 -999.99 -999.99    0.00000     0.00            0.00000E+00     0.00    0.00000E+00     0.00
 -180.00    10.00    -999.99 -999.99 -999.99    0.00000     0.00            4.81580E-13   142.32    0.00000E+00     0.00
 -175.00    10.00     -19.71 -999.99  -19.71    0.00000     0.00  LINEAR    4.11335E-03   -37.54    0.00000E+00     0.00
 -170.00    10.00     -13.72 -999.99  -13.72    0.00000     0.00  LINEAR    8.20221E-03   -37.13    0.00000E+00     0.00
 -165.00    10.00     -10.24 -999.99  -10.24    0.00000     0.00  LINEAR    1.22419E-02   -36.45    0.00000E+00     0.00
 -160.00    10.00      -7.80 -999.99   -7.80    0.00000     0.00  LINEAR    1.62070E-02   -35.50    0.00000E+00     0.00
 -155.00    10.00      -5.94 -999.99   -5.94    0.00000     0.00  LINEAR    2.00718E-02   -34.30    0.00000E+00     0.00
 -150.00    10.00      -4.46 -999.99   -4.46    0.00000     0.00  LINEAR    2.38095E-02   -32.85    0.00000E+00     0.00
 -145.00    10.00      -3.24 -999.99   -3.24    0.00000     0.00  LINEAR    2.73927E-02   -31.16    0.00000E+00     0.00
 -140.00    10.00      -2.23 -999.99   -2.23    0.00000     0.00  LINEAR    3.07932E-02   -29.25    0.00000E+00     0.00
 -135.00    10.00      -1.37 -999.99   -1.37    0.00000     0.00  LINEAR    3.39828E-02   -27.13    0.00000E+00     0.00
 -130.00    10.00      -0.65 -999.99   -0.65    0.00000     0.00  LINEAR    3.69329E-02   -24.81    0.00000E+00     0.00
 -125.00    10.00      -0.04 -999.99   -0.04    0.00000     0.00  LINEAR    3.96156E-02   -22.32    0.00000E+00     0.00
 -120.00    10.00       0.47 -999.99    0.47    0.00000     0.00  LINEAR    4.20040E-02   -19.67    0.00000E+00     0.00
 -115.00    10.00       0.89 -999.99    0.89    0.00000     0.00  LINEAR    4.40731E-02   -16.89    0.00000E+00     0.00
 -110.00    10.00       1.22 -999.99    1.22    0.00000     0.00  LINEAR    4.57999E-02   -13.98    0.00000E+00     0.00
 -105.00    10.00       1.48 -999.99    1.48    0.00000     0.00  LINEAR    4.71647E-02   -10.99    0.00000E+00     0.00
 -100.00    10.00       1.66 -999.99    1.66    0.00000     0.00  LINEAR    4.81516E-02    -7.92    0.00000E+00     0.00
  -95.00    10.00       1.76 -999.99    1.76    0.00000     0.00  LINEAR    4.87486E-02    -4.80    0.00000E+00     0.00
  -90.00    10.00       1.80 -999.99    1.80    0.00000     0.00  LINEAR    4.89484E-02    -1.66    0.00000E+00     0.00
  -85.00    10.00       1.76 -999.99    1.76    0.00000     0.00  LINEAR    4.87486E-02     1.48    0.00000E+00     0.00
  -80.00    10.00       1.66 -999.99    1.66    0.00000     0.00  LINEAR    4.81516E-02     4.59    0.00000E+00     0.00
  -75.00    10.00       1.48 -999.99    1.48    0.00000     0.00  LINEAR    4.71647E-02     7.66    0.00000E+00     0.00
  -70.00    10.00       1.22 -999.99    1.22    0.00000     0.00  LINEAR    4.57999E-02    10.66    0.00000E+00     0.00
  -65.00    10.00       0.89 -999.99    0.89    0.00000     0.00  LINEAR    4.40731E-02    13.56    0.00000E+00     0.00
  -60.00    10.00       0.47 -999.99    0.47    0.00000     0.00  LINEAR    4.20040E-02    16.35    0.00000E+00     0.00
  -55.00    10.00      -0.04 -999.99   -0.04    0.00000     0.00  LINEAR    3.96156E-02    19.00    0.00000E+00     0.00
  -50.00    10.00      -0.65 -999.99   -0.65    0.00000     0.00  LINEAR    3.69329E-02    21.50    0.00000E+00     0.00
  -45.00    10.00      -1.37 -999.99   -1.37    0.00000     0.00  LINEAR    3.39828E-02    23.82    0.00000E+00     0.00
  -40.00    10.00      -2.23 -999.99   -2.23    0.00000     0.00  LINEAR    3.07932E-02    25.94    0.00000E+00     0.00
  -35.00    10.00      -3.24 -999.99   -3.24    0.00000     0.00  LINEAR    2.73927E-02    27.85    0.00000E+00     0.00
  -30.00    10.00      -4.46 -999.99   -4.46    0.00000     0.00  LINEAR    2.38095E-02    29.54    0.00000E+00     0.00
  -25.00    10.00      -5.94 -999.99   -5.94    0.00000     0.00  LINEAR    2.00718E-02    31.00    0.00000E+00     0.00
  -20.00    10.00      -7.80 -999.99   -7.80    0.00000     0.00  LINEAR    1.62070E-02    32.20    0.00000E+00     0.00
  -15.00    10.00     -10.24 -999.99  -10.24    0.00000     0.00  LINEAR    1.22419E-02    33.14    0.00000E+00     0.00
  -10.00    10.00     -13.72 -999.99  -13.72    0.00000     0.00  LINEAR    8.20221E-03    33.83    0.00000E+00     0.00
   -5.00    10.00     -19.71 -999.99  -19.71    0.00000     0.00  LINEAR    4.11335E-03    34.24    0.00000E+00     0.00
    0.00    10.00    -999.99 -999.99 -999.99    0.00000     0.00            0.00000E+00     0.00    0.00000E+00     0.00
 -180.00    15.00    -999.99 -999.99 -999.99    0.00000     0.00            4.81580E-13   142.32    0.00000E+00     0.00
 -175.00    15.00     -19.71 -999.99  -19.71    0.00000     0.00  LINEAR    4.11335E-03   -37.54    0.00000E+00     0.00
 -170.00    15.00     -13.72 -999.99  -13.72    0.00000     0.00  LINEAR    8.20221E-03   -37.13    0.00000E+00     0.00
 -165.00    15.00     -10.24 -999.99  -10.24    0.00000     0.00  LINEAR    1.22419E-02   -36.45    0.00000E+00     0.00
 -160.00    15.00      -7.80 -999.99   -7.80    0.00000     0.00  LINEAR    1.62070E-02   -35.50    0.00000E+00     0.00
 -155.00    15.00      -5.94 -999.99   -5.94    0.00000     0.00  LINEAR    2.00718E-02   -34.30    0.00000E+00     0.00
 -150.00    15.00      -4.46 -999.99   -4.46    0.00000     0.00  LINEAR    2.38095E-02   -32.85    0.00000E+00     0.00
 -145.00    15.00      -3.24 -999.99   -3.24    0.00000     0.00  LINEAR    2.73927E-02   -31.16    0.00000E+00     0.00
 -140.00    15.00      -2.23 -999.99   -2.23    0.00000     0.00  LINEAR    3.07932E-02   -29.25    0.00000E+00     0.00
 -135.00    15.00      -1.37 -999.99   -1.37    0.00000     0.00  LINEAR    3.39828E-02   -27.13    0.00000E+00     0.00
 -130.00    15.00      -0.65 -999.99   -0.65    0.00000     0.00  LINEAR    3.69329E-02   -24.81    0.00000E+00     0.00
 -125.00    15.00      -0.04 -999.99   -0.04    0.00000     0.00  LINEAR    3.96156E-02   -22.32    0.00000E+00     0.00
 -120.00    15.00       0.47 -999.99    0.47    0.00000     0.00  LINEAR    4.20040E-02   -19.67    0.00000E+00     0.00
 -115.00    15.00       0.89 -999.99    0.89    0.00000     0.00  LINEAR    4.40731E-02   -16.89    0.00000E+00     0.00
 -110.00    15.00       1.22 -999.99    1.22    0.00000     0.00  LINEAR    4.57999E-02   -13.98    0.00000E+00     0.00
 -105.00    15.00       1.48 -999.99    1.48    0.00000     0.00  LINEAR    4.71647E-02   -10.99    0.00000E+00     0.00
 -100.00    15.00       1.66 -999.99    1.66    0.00000     0.00  LINEAR    4.81516E-02    -7.92    0.00000E+00     0.00
  -95.00    15.00       1.76 -999.99    1.76    0.00000     0.00  LINEAR    4.87486E-02    -4.80    0.00000E+00     0.00
  -90.00    15.00       1.80 -999.99    1.80    0.00000     0.00  LINEAR    4.89484E-02    -1.66    0.00000E+00     0.00
  -85.00    15.00       1.76 -999.99    1.76    0.00000     0.00  LINEAR    4.87486E-02     1.48    0.00000E+00     0.00
  -80.00    15.00       1.66 -999.99    1.66    0.00000     0.00  LINEAR    4.81516E-02     4.59    0.00000E+00     0.00
  -75.00    15.00       1.48 -999.99    1.48    0.00000     0.00  LINEAR    4.71647E-02     7.66    0.00000E+00     0.00
  -70.00    15.00       1.22 -999.99    1.22    0.00000     0.00  LINEAR    4.57999E-02    10.66    0.00000E+00     0.00
  -65.00    15.00       0.89 -999.99    0.89    0.00000     0.00  LINEAR    4.40731E-02    13.56    0.00000E+00     0.00
  -60.00    15.00       0.47 -999.99    0.47    0.00000     0.00  LINEAR    4.20040E-02    16.35    0.00000E+00     0.00
  -55.00    15.00      -0.04 -999.99   -0.04    0.00000     0.00  LINEAR    3.96156E-02    19.00    0.00000E+00     0.00
  -50.00    15.00      -0.65 -999.99   -0.65    0.00000     0.00  LINEAR    3.69329E-02    21.50    0.00000E+00     0.00
  -45.00    15.00      -1.37 -999.99   -1.37    0.00000     0.00  LINEAR    3.39828E-02    23.82    0.00000E+00     0.00
  -40.00    15.00      -2.23 -999.99   -2.23    0.00000     0.00  LINEAR    3.07932E-02    25.94    0.00000E+00     0.00
  -35.00    15.00      -3.24 -999.99   -3.24    0.00000     0.00  LINEAR    2.73927E-02    27.85    0.00000E+00     0.00
  -30.00    15.00      -4.46 -999.99   -4.46    0.00000     0.00  LINEAR    2.38095E-02    29.54    0.00000E+00     0.00
  -25.00    15.00      -5.94 -999.99   -5.94    0.00000     0.00  LINEAR    2.00718E-02    31.00    0.00000E+00     0.00
  -20.00    15.00      -7.80 -999.99   -7.80    0.00000     0.00  LINEAR    1.62070E-02    32.20    0.00000E+00     0.00
  -15.00    15.00     -10.24 -999.99  -10.24    0.00000     0.00  LINEAR    1.22419E-02    33.14    0.00000E+00     0.00
  -10.00    15.00     -13.72 -999.99  -13.72    0.00000     0.00  LINEAR    8.20221E-03    33.83    0.00000E+00     0.00
   -5.00    15.00     -19.71 -999.99  -19.71    0.00000     0.00  LINEAR    4.11335E-03    34.24    0.00000E+00     0.00
    0.00    15.00    -999.99 -999.99 -999.99    0.00000     0.00            0.00000E+00     0.00    0.00000E+00     0.00
 -180.00    20.00    -999.99 -999.99 -999.99    0.00000     0.00            4.81580E-13   142.32    0.00000E+00     0.00
 -175.00    20.00     -19.71 -999.99  -19.71    0.00000     0.00  LINEAR    4.11335E-03   -37.54    0.00000E+00     0.00
 -170.00    20.00     -13.72 -999.99  -13.72    0.00000     0.00  LINEAR    8.20221E-03   -37.13    0.00000E+00     0.00
 -165.00    20.00     -10.24 -999.99  -10.24    0.00000     0.00  LINEAR    1.22419E-02   -36.45    0.00000E+00     0.00
 -160.00    20.00      -7.80 -999.99   -7.80    0.00000     0.00  LINEAR    1.62070E-02   -35.50    0.00000E+00     0.00
 -155.00    20.00      -5.94 -999.99   -5.94    0.00000     0.00  LINEAR    2.00718E-02   -34.30    0.00000E+00     0.00
 -150.00    20.00      -4.46 -999.99   -4.46    0.00000     0.00  LINEAR    2.38095E-02   -32.85    0.00000E+00     0.00
 -145.00    20.00      -3.24 -999.99   -3.24    0.00000     0.00  LINEAR    2.73927E-02   -31.16    0.00000E+00     0.00
 -140.00    20.00      -2.23 -999.99   -2.23    0.00000     0.00  LINEAR    3.07932E-02   -29.25    0.00000E+00     0.00
 -135.00    20.00      -1.37 -999.99   -1.37    0.00000     0.00  LINEAR    3.39828E-02   -27.13    0.00000E+00     0.00
 -130.00    20.00      -0.65 -999.99   -0.65    0.00000     0.00  LINEAR    3.69329E-02   -24.81    0.00000E+00     0.00
 -125.00    20.00      -0.04 -999.99   -0.04    0.00000     0.00  LINEAR    3.96156E-02   -22.32    0.00000E+00     0.00
 -120.00    20.00       0.47 -999.99    0.47    0.00000     0.00  LINEAR    4.20040E-02   -19.67    0.00000E+00     0.00
 -115.00    20.00       0.89 -999.99    0.89    0.00000     0.00  LINEAR    4.40731E-02   -16.89    0.00000E+00     0.00
 -110.00    20.00       1.22 -999.99    1.22    0.00000     0.00  LINEAR    4.57999E-02   -13.98    0.00000E+00     0.00
 -105.00    20.00       1.48 -999.99    1.48    0.00000     0.00  LINEAR    4.71647E-02   -10.99    0.00000E+00     0.00
 -100.00    20.00       1.66 -999.99    1.66    0.00000     0.00  LINEAR    4.81516E-02    -7.92    0.00000E+00     0.00
  -95.00    20.00       1.76 -999.99    1.76    0.00000     0.00  LINEAR    4.87486E-02    -4.80    0.00000E+00     0.00
  -90.00    20.00       1.80 -999.99    1.80    0.00000     0.00  LINEAR    4.89484E-02    -1.66    0.00000E+00     0.00
  -85.00    20.00       1.76 -999.99    1.76    0.00000     0.00  LINEAR    4.87486E-02     1.48    0.00000E+00     0.00
  -80.00    20.00       1.66 -999.99    1.66    0.00000     0.00  LINEAR    4.81516E-02     4.59    0.00000E+00     0.00
  -75.00    20.00       1.48 -999.99    1.48    0.00000     0.00  LINEAR    4.71647E-02     7.66    0.00000E+00     0.00
  -70.00    20.00       1.22 -999.99    1.22    0.00000     0.00  LINEAR    4.57999E-02    10.66    0.00000E+00     0.00
  -65.00    20.00       0.89 -999.99    0.89    0.00000     0.00  LINEAR    4.40731E-02    13.56    0.00000E+00     0.00
  -60.00    20.00       0.47 -999.99    0.47    0.00000     0.00  LINEAR    4.20040E-02    16.35    0.00000E+00     0.00
  -55.00    20.00      -0.04 -999.99   -0.04    0.00000     0.00  LINEAR    3.96156E-02    19.00    0.00000E+00     0.00
  -50.00    20.00      -0.65 -999.99   -0.65    0.00000     0.00  LINEAR    3.69329E-02    21.50    0.00000E+00     0.00
  -45.00    20.00      -1.37 -999.99   -1.37    0.00000     0.00  LINEAR    3.39828E-02    23.82    0.00000E+00     0.00
  -40.00    20.00      -2.23 -999.99   -2.23    0.00000     0.00  LINEAR    3.07932E-02    25.94    0.00000E+00     0.00
  -35.00    20.00      -3.24 -999.99   -3.24    0.00000     0.00  LINEAR    2.73927E-02    27.85    0.00000E+00     0.00
  -30.00    20.00      -4.46 -999.99   -4.46    0.00000     0.00  LINEAR    2.38095E-02    29.54    0.00000E+00     0.00
  -25.00    20.00      -5.94 -999.99   -5.94    0.00000     0.00  LINEAR    2.00718E-02    31.00    0.00000E+00     0.00
  -20.00    20.00      -7.80 -999.99   -7.80    0.00000     0.00  LINEAR    1.62070E-02    32.20    0.00000E+00     0.00
  -15.00    20.00     -10.24 -999.99  -10.24    0.00000     0.00  LINEAR    1.22419E-02    33.14    0.00000E+00     0.00
  -10.00    20.00     -13.72 -999.99  -13.72    0.00000     0.00  LINEAR    8.20221E-03    33.83    0.00000E+00     0.00
   -5.00    20.00     -19.71 -999.99  -19.71    0.00000     0.00  LINEAR    4.11335E-03    34.24    0.00000E+00     0.00
    0.00    20.00    -999.99 -999.99 -999.99    0.00000     0.00            0.00000E+00     0.00    0.00000E+00     0.00
 -180.00    25.00    -999.99 -999.99 -999.99    0.00000     0.00            4.81580E-13   142.32    0.00000E+00     0.00
 -175.00    25.00     -19.71 -999.99  -19.71    0.00000     0.00  LINEAR    4.11335E-03   -37.54    0.00000E+00     0.00
 -170.00    25.00     -13.72 -999.99  -13.72    0.00000     0.00  LINEAR    8.20221E-03   -37.13    0.00000E+00     0.00
 -165.00    25.00     -10.24 -999.99  -10.24    0.00000     0.00  LINEAR    1.22419E-02   -36.45    0.00000E+00     0.00
 -160.00    25.00      -7.80 -999.99   -7.80    0.00000     0.00  LINEAR    1.62070E-02   -35.50    0.00000E+00     0.00
 -155.00    25.00      -5.94 -999.99   -5.94    0.00000     0.00  LINEAR    2.00718E-02   -34.30    0.00000E+00     0.00
 -150.00    25.00      -4.46 -999.99   -4.46    0.00000     0.00  LINEAR    2.38095E-02   -32.85    0.00000E+00     0.00
 -145.00    25.00      -3.24 -999.99   -3.24    0.00000     0.00  LINEAR    2.73927E-02   -31.16    0.00000E+00     0.00
 -140.00    25.00      -2.23 -999.99   -2.23    0.00000     0.00  LINEAR    3.07932E-02   -29.25    0.00000E+00     0.00
 -135.00    25.00      -1.37 -999.99   -1.37    0.00000     0.00  LINEAR    3.39828E-02   -27.13    0.00000E+00     0.00
 -130.00    25.00      -0.65 -999.99   -0.65    0.00000     0.00  LINEAR    3.69329E-02   -24.81    0.00000E+00     0.00
 -125.00    25.00      -0.04 -999.99   -0.04    0.00000     0.00  LINEAR    3.96156E-02   -22.32    0.00000E+00     0.00
 -120.00    25.00       0.47 -999.99    0.47    0.00000     0.00  LINEAR    4.20040E-02   -19.67    0.00000E+00     0.00
 -115.00    25.00       0.89 -999.99    0.89    0.00000     0.00  LINEAR    4.40731E-02   -16.89    0.00000E+00     0.00
 -110.00    25.00       1.22 -999.99    1.22    0.00000     0.00  LINEAR    4.57999E-02   -13.98    0.00000E+00     0.00
 -105.00    25.00       1.48 -999.99    1.48    0.00000     0.00  LINEAR    4.71647E-02   -10.99    0.00000E+00     0.00
 -100.00    25.00       1.66 -999.99    1.66    0.00000     0.00  LINEAR    4.81516E-02    -7.92    0.00000E+00     0.00
  -95.00    25.00       1.76 -999.99    1.76    0.00000     0.00  LINEAR    4.87486E-02    -4.80    0.00000E+00     0.00
  -90.00    25.00       1.80 -999.99    1.80    0.00000     0.00  LINEAR    4.89484E-02    -1.66    0.00000E+00     0.00
  -85.00    25.00       1.76 -999.99    1.76    0.00000     0.00  LINEAR    4.87486E-02     1.48    0.00000E+00     0.00
  -80.00    25.00       1.66 -999.99    1.66    0.00000     0.00  LINEAR    4.81516E-02     4.59    0.00000E+00     0.00
  -75.00    25.00       1.48 -999.99    1.48    0.00000     0.00  LINEAR    4.71647E-02     7.66    0.00000E+00     0.00
  -70.00    25.00       1.22 -999.99    1.22    0.00000     0.00  LINEAR    4.57999E-02    10.66    0.00000E+00     0.00
  -65.00    25.00       0.89 -999.99    0.89    0.00000     0.00  LINEAR    4.40731E-02    13.56    0.00000E+00     0.00
  -60.00    25.00       0.47 -999.99    0.47    0.00000     0.00  LINEAR    4.20040E-02    16.35    0.00000E+00     0.00
  -55.00    25.00      -0.04 -999.99   -0.04    0.00000     0.00  LINEAR    3.96156E-02    19.00    0.00000E+00     0.00
  -50.00    25.00      -0.65 -999.99   -0.65    0.00000     0.00  LINEAR    3.69329E-02    21.50    0.00000E+00     0.00
  -45.00    25.00      -1.37 -999.99   -1.37    0.00000     0.00  LINEAR    3.39828E-02    23.82    0.00000E+00     0.00
  -40.00    25.00      -2.23 -999.99   -2.23    0.00000     0.00  LINEAR    3.07932E-02    25.94    0.00000E+00     0.00
  -35.00    25.00      -3.24 -999.99   -3.24    0.00000     0.00  LINEAR    2.73927E-02    27.85    0.00000E+00     0.00
  -30.00    25.00      -4.46 -999.99   -4.46    0.00000     0.00  LINEAR    2.38095E-02    29.54    0.00000E+00     0.00
  -25.00    25.00      -5.94 -999.99   -5.94    0.00000     0.00  LINEAR    2.00718E-02    31.00    0.00000E+00     0.00
  -20.00    25.00      -7.80 -999.99   -7.80    0.00000     0.00  LINEAR    1.62070E-02    32.20    0.00000E+00     0.00
  -15.00    25.00     -10.24 -999.99  -10.24    0.00000     0.00  LINEAR    1.22419E-02    33.14    0.00000E+00     0.00
  -10.00    25.00     -13.72 -999.99  -13.72    0.00000     0.00  LINEAR    8.20221E-03    33.83    0.00000E+00     0.00
   -5.00    25.00     -19.71 -999.99  -19.71    0.00000     0.00  LINEAR    4.11335E-03    34.24    0.00000E+00     0.00
    0.00    25.00    -999.99 -999.99 -999.99    0.00000     0.00            0.00000E+00     0.00    0.00000E+00     0.00
 -180.00    30.00    -999.99 -999.99 -999.99    0.00000     0.00            4.81580E-13   142.32    0.00000E+00     0.00
 -175.00    30.00     -19.71 -999.99  -19.71    0.00000     0.00  LINEAR    4.11335E-03   -37.54    0.00000E+00     0.00
 -170.00    30.00     -13.72 -999.99  -13.72    0.00000     0.00  LINEAR    8.20221E-03   -37.13    0.00000E+00     0.00
 -165.00    30.00     -10.24 -999.99  -10.24    0.00000     0.00  LINEAR    1.22419E-02   -36.45    0.00000E+00     0.00
 -160.00    30.00      -7.80 -999.99   -7.80    0.00000     0.00  LINEAR    1.62070E-02   -35.50    0.00000E+00     0.00
 -155.00    30.00      -5.94 -999.99   -5.94    0.00000     0.00  LINEAR    2.00718E-02   -34.30    0.00000E+00     0.00
 -150.00    30.00      -4.46 -999.99   -4.46    0.00000     0.00  LINEAR    2.38095E-02   -32.85    0.00000E+00     0.00
 -145.00    30.00      -3.24 -999.99   -3.24    0.00000     0.00  LINEAR    2.73927E-02   -31.16    0.00000E+00     0.00
 -140.00    30.00      -2.23 -999.99   -2.23    0.00000     0.00  LINEAR    3.07932E-02   -29.25    0.00000E+00     0.00
 -135.00    30.00      -1.37 -999.99   -1.37    0.00000     0.00  LINEAR    3.39828E-02   -27.13    0.00000E+00     0.00
 -130.00    30.00      -0.65 -999.99   -0.65    0.00000     0.00  LINEAR    3.69329E-02   -24.81    0.00000E+00     0.00
 -125.00    30.00      -0.04 -999.99   -0.04    0.00000     0.00  LINEAR    3.96156E-02   -22.32    0.00000E+00     0.00
 -120.00    30.00       0.47 -999.99    0.47    0.00000     0.00  LINEAR    4.20040E-02   -19.67    0.00000E+00     0.00
 -115.00    30.00       0.89 -999.99    0.89    0.00000     0.00  LINEAR    4.40731E-02   -16.89    0.00000E+00     0.00
 -110.00    30.00       1.22 -999.99    1.22    0.00000     0.00  LINEAR    4.57999E-02   -13.98    0.00000E+00     0.00
 -105.00    30.00       1.48 -999.99    1.48    0.00000     0.00  LINEAR    4.71647E-02   -10.99    0.00000E+00     0.00
 -100.00    30.00       1.66 -999.99    1.66    0.00000     0.00  LINEAR    4.81516E-02    -7.92    0.00000E+00     0.00
  -95.00    30.00       1.76 -999.99    1.76    0.00000     0.00  LINEAR    4.87486E-02    -4.80    0.00000E+00     0.00
  -90.00    30.00       1.80 -999.99    1.80    0.00000     0.00  LINEAR    4.89484E-02    -1.66    0.00000E+00     0.00
  -85.00    30.00       1.76 -999.99    1.76    0.00000     0.00  LINEAR    4.87486E-02     1.48    0.00000E+00     0.00
  -80.00    30.00       1.66 -999.99    1.66    0.00000     0.00  LINEAR    4.81516E-02     4.59    0.00000E+00     0.00
  -75.00    30.00       1.48 -999.99    1.48    0.00000     0.00  LINEAR    4.71647E-02     7.66    0.00000E+00     0.00
  -70.00    30.00       1.22 -999.99    1.22    0.00000     0.00  LINEAR    4.57999E-02    10.66    0.00000E+00     0.00
  -65.00    30.00       0.89 -999.99    0.89    0.00000     0.00  LINEAR    4.40731E-02    13.56    0.00000E+00     0.00
  -60.00    30.00       0.47 -999.99    0.47    0.00000     0.00  LINEAR    4.20040E-02    16.35    0.00000E+00     0.00
  -55.00    30.00      -0.04 -999.99   -0.04    0.00000     0.00  LINEAR    3.96156E-02    19.00    0.00000E+00     0.00
  -50.00    30.00      -0.65 -999.99   -0.65    0.00000     0.00  LINEAR    3.69329E-02    21.50    0.00000E+00     0.00
  -45.00    30.00      -1.37 -999.99   -1.37    0.00000     0.00  LINEAR    3.39828E-02    23.82    0.00000E+00     0.00
  -40.00    30.00      -2.23 -999.99   -2.23    0.00000     0.00  LINEAR    3.07932E-02    25.94    0.00000E+00     0.00
  -35.00    30.00      -3.24 -999.99   -3.24    0.00000     0.00  LINEAR    2.73927E-02    27.85    0.00000E+00     0.00
  -30.00    30.00      -4.46 -999.99   -4.46    0.00000     0.00  LINEAR    2.38095E-02    29.54    0.00000E+00     0.00
  -25.00    30.00      -5.94 -999.99   -5.94    0.00000     0.00  LINEAR    2.00718E-02    31.00    0.00000E+00     0.00
  -20.00    30.00      -7.80 -999.99   -7.80    0.00000     0.00  LINEAR    1.62070E-02    32.20    0.00000E+00     0.00
  -15.00    30.00     -10.24 -999.99  -10.24    0.00000     0.00  LINEAR    1.22419E-02    33.14    0.00000E+00     0.00
  -10.00    30.00     -13.72 -999.99  -13.72    0.00000     0.00  LINEAR    8.20221E-03    33.83    0.00000E+00     0.00
   -5.00    30.00     -19.71 -999.99  -19.71    0.00000     0.00  LINEAR    4.11335E-03    34.24    0.00000E+00     0.00
    0.00    30.00    -999.99 -999.99 -999.99    0.00000     0.00            0.00000E+00     0.00    0.00000E+00     0.00
 -180.00    35.00    -999.99 -999.99 -999.99    0.00000     0.00            4.81580E-13   142.32    0.00000E+00     0.00
 -175.00    35.00     -19.71 -999.99  -19.71    0.00000     0.00  LINEAR    4.11335E-03   -37.54    0.00000E+00     0.00
 -170.00    35.00     -13.72 -999.99  -13.72    0.00000     0.00  LINEAR    8.20221E-03   -37.13    0.00000E+00     0.00
 -165.00    35.00     -10.24 -999.99  -10.24    0.00000     0.00  LINEAR    1.22419E-02   -36.45    0.00000E+00     0.00
 -160.00    35.00      -7.80 -999.99   -7.80    0.00000     0.00  LINEAR    1.62070E-02   -35.50    0.00000E+00     0.00
 -155.00    35.00      -5.94 -999.99   -5.94    0.00000     0.00  LINEAR    2.00718E-02   -34.30    0.00000E+00     0.00
 -150.00    35.00      -4.46 -999.99   -4.46    0.00000     0.00  LINEAR    2.38095E-02   -32.85    0.00000E+00     0.00
 -145.00    35.00      -3.24 -999.99   -3.24    0.00000     0.00  LINEAR    2.73927E-02   -31.16    0.00000E+00     0.00
 -140.00    35.00      -2.23 -999.99   -2.23    0.00000     0.00  LINEAR    3.07932E-02   -29.25    0.00000E+00     0.00
 -135.00    35.00      -1.37 -999.99   -1.37    0.00000     0.00  LINEAR    3.39828E-02   -27.13    0.00000E+00     0.00
 -130.00    35.00      -0.65 -999.99   -0.65    0.00000     0.00  LINEAR    3.69329E-02   -24.81    0.00000E+00     0.00
 -125.00    35.00      -0.04 -999.99   -0.04    0.00000     0.00  LINEAR    3.96156E-02   -22.32    0.00000E+00     0.00
 -120.00    35.00       0.47 -999.99    0.47    0.00000     0.00  LINEAR    4.20040E-02   -19.67    0.00000E+00     0.00
 -115.00    35.00       0.89 -999.99    0.89    0.00000     0.00  LINEAR    4.40731E-02   -16.89    0.00000E+00     0.00
 -110.00    35.00       1.22 -999.99    1.22    0.00000     0.00  LINEAR    4.57999E-02   -13.98    0.00000E+00     0.00
 -105.00    35.00       1.48 -999.99    1.48    0.00000     0.00  LINEAR    4.71647E-02   -10.99    0.00000E+00     0.00
 -100.00    35.00       1.66 -999.99    1.66    0.00000     0.00  LINEAR    4.81516E-02    -7.92    0.00000E+00     0.00
  -95.00    35.00       1.76 -999.99    1.76    0.00000     0.00  LINEAR    4.87486E-02    -4.80    0.00000E+00     0.00
  -90.00    35.00       1.80 -999.99    1.80    0.00000     0.00  LINEAR    4.89484E-02    -1.66    0.00000E+00     0.00
  -85.00    35.00       1.76 -999.99    1.76    0.00000     0.00  LINEAR    4.87486E-02     1.48    0.00000E+00     0.00
  -80.00    35.00       1.66 -999.99    1.66    0.00000     0.00  LINEAR    4.81516E-02     4.59    0.00000E+00     0.00
  -75.00    35.00       1.48 -999.99    1.48    0.00000     0.00  LINEAR    4.71647E-02     7.66    0.00000E+00     0.00
  -70.00    35.00       1.22 -999.99    1.22    0.00000     0.00  LINEAR    4.57999E-02    10.66    0.00000E+00     0.00
  -65.00    35.00       0.89 -999.99    0.89    0.00000     0.00  LINEAR    4.40731E-02    13.56    0.00000E+00     0.00
  -60.00    35.00       0.47 -999.99    0.47    0.00000     0.00  LINEAR    4.20040E-02    16.35    0.00000E+00     0.00
  -55.00    35.00      -0.04 -999.99   -0.04    0.00000     0.00  LINEAR    3.96156E-02    19.00    0.00000E+00     0.00
  -50.00    35.00      -0.65 -999.99   -0.65    0.00000     0.00  LINEAR    3.69329E-02    21.50    0.00000E+00     0.00
  -45.00    35.00      -1.37 -999.99   -1.37    0.00000     0.00  LINEAR    3.39828E-02    23.82    0.00000E+00     0.00
  -40.00    35.00      -2.23 -999.99   -2.23    0.00000     0.00  LINEAR    3.07932E-02    25.94    0.00000E+00     0.00
  -35.00    35.00      -3.24 -999.99   -3.24    0.00000     0.00  LINEAR    2.73927E-02    27.85    0.00000E+00     0.00
  -30.00    35.00      -4.46 -999.99   -4.46    0.00000     0.00  LINEAR    2.38095E-02    29.54    0.00000E+00     0.00
  -25.00    35.00      -5.94 -999.99   -5.94    0.00000     0.00  LINEAR    2.00718E-02    31.00    0.00000E+00     0.00
  -20.00    35.00      -7.80 -999.99   -7.80    0.00000     0.00  LINEAR    1.62070E-02    32.20    0.00000E+00     0.00
  -15.00    35.00     -10.24 -999.99  -10.24    0.00000     0.00  LINEAR    1.22419E-02    33.14    0.00000E+00     0.00
  -10.00    35.00     -13.72 -999.99  -13.72    0.00000     0.00  LINEAR    8.20221E-03    33.83    0.00000E+00     0.00
   -5.00    35.00     -19.71 -999.99  -19.71    0.00000     0.00  LINEAR    4.11335E-03    34.24    0.00000E+00     0.00
    0.00    35.00    -999.99 -999.99 -999.99    0.00000     0.00            0.00000E+00     0.00    0.00000E+00     0.00
 -180.00    40.00    -999.99 -999.99 -999.99    0.00000     0.00            4.81580E-13   142.32    0.00000E+00     0.00
 -175.00    40.00     -19.71 -999.99  -19.71    0.00000     0.00  LINEAR    4.11335E-03   -37.54    0.00000E+00     0.00
 -170.00    40.00     -13.72 -999.99  -13.72    0.00000     0.00  LINEAR    8.20221E-03   -37.13    0.00000E+00     0.00
 -165.00    40.00     -10.24 -999.99  -10.24    0.00000     0.00  LINEAR    1.22419E-02   -36.45    0.00000E+00     0.00
 -160.00    40.00      -7.80 -999.99   -7.80    0.00000     0.00  LINEAR    1.62070E-02   -35.50    0.00000E+00     0.00
 -155.00    40.00      -5.94 -999.99   -5.94    0.00000     0.00  LINEAR    2.00718E-02   -34.30    0.00000E+00     0.00
 -150.00    40.00      -4.46 -999.99   -4.46    0.00000     0.00  LINEAR    2.38095E-02   -32.85    0.00000E+00     0.00
 -145.00    40.00      -3.24 -999.99   -3.24    0.00000     0.00  LINEAR    2.73927E-02   -31.16    0.00000E+00     0.00
 -140.00    40.00      -2.23 -999.99   -2.23    0.00000     0.00  LINEAR    3.07932E-02   -29.25    0.00000E+00     0.00
 -135.00    40.00      -1.37 -999.99   -1.37    0.00000     0.00  LINEAR    3.39828E-02   -27.13    0.00000E+00     0.00
 -130.00    40.00      -0.65 -999.99   -0.65    0.00000     0.00  LINEAR    3.69329E-02   -24.81    0.00000E+00     0.00
 -125.00    40.00      -0.04 -999.99   -0.04    0.00000     0.00  LINEAR    3.96156E-02   -22.32    0.00000E+00     0.00
 -120.00    40.00       0.47 -999.99    0.47    0.00000     0.00  LINEAR    4.20040E-02   -19.67    0.00000E+00     0.00
 -115.00    40.00       0.89 -999.99    0.89    0.00000     0.00  LINEAR    4.40731E-02   -16.89    0.00000E+00     0.00
 -110.00    40.00       1.22 -999.99    1.22    0.00000     0.00  LINEAR    4.57999E-02   -13.98    0.00000E+00     0.00
 -105.00    40.00       1.48 -999.99    1.48    0.00000     0.00  LINEAR    4.71647E-02   -10.99    0.00000E+00     0.00
 -100.00    40.00       1.66 -999.99    1.66    0.00000     0.00  LINEAR    4.81516E-02    -7.92    0.00000E+00     0.00
  -95.00    40.00       1.76 -999.99    1.76    0.00000     0.00  LINEAR    4.87486E-02    -4.80    0.00000E+00     0.00
  -90.00    40.00       1.80 -999.99    1.80    0.00000     0.00  LINEAR    4.89484E-02    -1.66    0.00000E+00     0.00
  -85.00    40.00       1.76 -999.99    1.76    0.00000     0.00  LINEAR    4.87486E-02     1.48    0.00000E+00     0.00
  -80.00    40.00       1.66 -999.99    1.66    0.00000     0.00  LINEAR    4.81516E-02     4.59    0.00000E+00     0.00
  -75.00    40.00       1.48 -999.99    1.48    0.00000     0.00  LINEAR    4.71647E-02     7.66    0.00000E+00     0.00
  -70.00    40.00       1.22 -999.99    1.22    0.00000     0.00  LINEAR    4.57999E-02    10.66    0.00000E+00     0.00
  -65.00    40.00       0.89 -999.99    0.89    0.00000     0.00  LINEAR    4.40731E-02    13.56    0.00000E+00     0.00
  -60.00    40.00       0.47 -999.99    0.47    0.00000     0.00  LINEAR    4.20040E-02    16.35    0.00000E+00     0.00
  -55.00    40.00      -0.04 -999.99   -0.04    0.00000     0.00  LINEAR    3.96156E-02    19.00    0.00000E+00     0.00
  -50.00    40.00      -0.65 -999.99   -0.65    0.00000     0.00  LINEAR    3.69329E-02    21.50    0.00000E+00     0.00
  -45.00    40.00      -1.37 -999.99   -1.37    0.00000     0.00  LINEAR    3.39828E-02    23.82    0.00000E+00     0.00
  -40.00    40.00      -2.23 -999.99   -2.23    0.00000     0.00  LINEAR    3.07932E-02    25.94    0.00000E+00     0.00
  -35.00    40.00      -3.24 -999.99   -3.24    0.00000     0.00  LINEAR    2.73927E-02    27.85    0.00000E+00     0.00
  -30.00    40.00      -4.46 -999.99   -4.46    0.00000     0.00  LINEAR    2.38095E-02    29.54    0.00000E+00     0.00
  -25.00    40.00      -5.94 -999.99   -5.94    0.00000     0.00  LINEAR    2.00718E-02    31.00    0.00000E+00     0.00
  -20.00    40.00      -7.80 -999.99   -7.80    0.00000     0.00  LINEAR    1.62070E-02    32.20    0.00000E+00     0.00
  -15.00    40.00     -10.24 -999.99  -10.24    0.00000     0.00  LINEAR    1.22419E-02    33.14    0.00000E+00     0.00
  -10.00    40.00     -13.72 -999.99  -13.72    0.00000     0.00  LINEAR    8.20221E-03    33.83    0.00000E+00     0.00
   -5.00    40.00     -19.71 -999.99  -19.71    0.00000     0.00  LINEAR    4.11335E-03    34.24    0.00000E+00     0.00
    0.00    40.00    -999.99 -999.99 -999.99    0.00000     0.00            0.00000E+00     0.00    0.00000E+00     0.00
 -180.00    45.00    -999.99 -999.99 -999.99    0.00000     0.00            4.81580E-13   142.32    0.00000E+00     0.00
 -175.00    45.00     -19.71 -999.99  -19.71    0.00000     0.00  LINEAR    4.11335E-03   -37.54    0.00000E+00     0.00
 -170.00    45.00     -13.72 -999.99  -13.72    0.00000     0.00  LINEAR    8.20221E-03   -37.13    0.00000E+00     0.00
 -165.00    45.00     -10.24 -999.99  -10.24    0.00000     0.00  LINEAR    1.22419E-02   -36.45    0.00000E+00     0.00
 -160.00    45.00      -7.80 -999.99   -7.80    0.00000     0.00  LINEAR    1.62070E-02   -35.50    0.00000E+00     0.00
 -155.00    45.00      -5.94 -999.99   -5.94    0.00000     0.00  LINEAR    2.00718E-02   -34.30    0.00000E+00     0.00
 -150.00    45.00      -4.46 -999.99   -4.46    0.00000     0.00  LINEAR    2.38095E-02   -32.85    0.00000E+00     0.00
 -145.00    45.00      -3.24 -999.99   -3.24    0.00000     0.00  LINEAR    2.73927E-02   -31.16    0.00000E+00     0.00
 -140.00    45.00      -2.23 -999.99   -2.23    0.00000     0.00  LINEAR    3.07932E-02   -29.25    0.00000E+00     0.00
 -135.00    45.00      -1.37 -999.99   -1.37    0.00000     0.00  LINEAR    3.39828E-02   -27.13    0.00000E+00     0.00
 -130.00    45.00      -0.65 -999.99   -0.65    0.00000     0.00  LINEAR    3.69329E-02   -24.81    0.00000E+00     0.00
 -125.00    45.00      -0.04 -999.99   -0.04    0.00000     0.00  LINEAR    3.96156E-02   -22.32    0.00000E+00     0.00
 -120.00    45.00       0.47 -999.99    0.47    0.00000     0.00  LINEAR    4.20040E-02   -19.67    0.00000E+00     0.00
 -115.00    45.00       0.89 -999.99    0.89    0.00000     0.00  LINEAR    4.40731E-02   -16.89    0.00000E+00     0.00
 -110.00    45.00       1.22 -999.99    1.22    0.00000     0.00  LINEAR    4.57999E-02   -13.98    0.00000E+00     0.00
 -105.00    45.00       1.48 -999.99    1.48    0.00000     0.00  LINEAR    4.71647E-02   -10.99    0.00000E+00     0.00
 -100.00    45.00       1.66 -999.99    1.66    0.00000     0.00  LINEAR    4.81516E-02    -7.92    0.00000E+00     0.00
  -95.00    45.00       1.76 -999.99    1.76    0.00000     0.00  LINEAR    4.87486E-02    -4.80    0.00000E+00     0.00
  -90.00    45.00       1.80 -999.99    1.80    0.00000     0.00  LINEAR    4.89484E-02    -1.66    0.00000E+00     0.00
  -85.00    45.00       1.76 -999.99    1.76    0.00000     0.00  LINEAR    4.87486E-02     1.48    0.00000E+00     0.00
  -80.00    45.00       1.66 -999.99    1.66    0.00000     0.00  LINEAR    4.81516E-02     4.59    0.00000E+00     0.00
  -75.00    45.00       1.48 -999.99    1.48    0.00000     0.00  LINEAR    4.71647E-02     7.66    0.00000E+00     0.00
  -70.00    45.00       1.22 -999.99    1.22    0.00000     0.00  LINEAR    4.57999E-02    10.66    0.00000E+00     0.00
  -65.00    45.00       0.89 -999.99    0.89    0.00000     0.00  LINEAR    4.40731E-02    13.56    0.00000E+00     0.00
  -60.00    45.00       0.47 -999.99    0.47    0.00000     0.00  LINEAR    4.20040E-02    16.35    0.00000E+00     0.00
  -55.00    45.00      -0.04 -999.99   -0.04    0.00000     0.00  LINEAR    3.96156E-02    19.00    0.00000E+00     0.00
  -50.00    45.00      -0.65 -999.99   -0.65    0.00000     0.00  LINEAR    3.69329E-02    21.50    0.00000E+00     0.00
  -45.00    45.00      -1.37 -999.99   -1.37    0.00000     0.00  LINEAR    3.39828E-02    23.82    0.00000E+00     0.00
  -40.00    45.00      -2.23 -999.99   -2.23    0.00000     0.00  LINEAR    3.07932E-02    25.94    0.00000E+00     0.00
  -35.00    45.00      -3.24 -999.99   -3.24    0.00000     0.00  LINEAR    2.73927E-02    27.85    0.00000E+00     0.00
  -30.00    45.00      -4.46 -999.99   -4.46    0.00000     0.00  LINEAR    2.38095E-02    29.54    0.00000E+00     0.00
  -25.00    45.00      -5.94 -999.99   -5.94    0.00000     0.00  LINEAR    2.00718E-02    31.00    0.00000E+00     0.00
  -20.00    45.00      -7.80 -999.99   -7.80    0.00000     0.00  LINEAR    1.62070E-02    32.20    0.00000E+00     0.00
  -15.00    45.00     -10.24 -999.99  -10.24    0.00000     0.00  LINEAR    1.22419E-02    33.14    0.00000E+00     0.00
  -10.00    45.00     -13.72 -999.99  -13.72    0.00000     0.00  LINEAR    8.20221E-03    33.83    0.00000E+00     0.00
   -5.00    45.00     -19.71 -999.99  -19.71    0.00000     0.00  LINEAR    4.11335E-03    34.24    0.00000E+00     0.00
    0.00    45.00    -999.99 -999.99 -999.99    0.00000     0.00            0.00000E+00     0.00    0.00000E+00     0.00
 -180.00    50.00    -999.99 -999.99 -999.99    0.00000     0.00            4.81580E-13   142.32    0.00000E+00     0.00
 -175.00    50.00     -19.71 -999.99  -19.71    0.00000     0.00  LINEAR    4.11335E-03   -37.54    0.00000E+00     0.00
 -170.00    50.00     -13.72 -999.99  -13.72    0.00000     0.00  LINEAR    8.20221E-03   -37.13    0.00000E+00     0.00
 -165.00    50.00     -10.24 -999.99  -10.24    0.00000     0.00  LINEAR    1.22419E-02   -36.45    0.00000E+00     0.00
 -160.00    50.00      -7.80 -999.99   -7.80    0.00000     0.00  LINEAR    1.62070E-02   -35.50    0.00000E+00     0.00
 -155.00    50.00      -5.94 -999.99   -5.94    0.00000     0.00  LINEAR    2.00718E-02   -34.30    0.00000E+00     0.00
 -150.00    50.00      -4.46 -999.99   -4.46    0.00000     0.00  LINEAR    2.38095E-02   -32.85    0.00000E+00     0.00
 -145.00    50.00      -3.24 -999.99   -3.24    0.00000     0.00  LINEAR    2.73927E-02   -31.16    0.00000E+00     0.00
 -140.00    50.00      -2.23 -999.99   -2.23    0.00000     0.00  LINEAR    3.07932E-02   -29.25    0.00000E+00     0.00
 -135.00    50.00      -1.37 -999.99   -1.37    0.00000     0.00  LINEAR    3.39828E-02   -27.13    0.00000E+00     0.00
 -130.00    50.00      -0.65 -999.99   -0.65    0.00000     0.00  LINEAR    3.69329E-02   -24.81    0.00000E+00     0.00
 -125.00    50.00      -0.04 -999.99   -0.04    0.00000     0.00  LINEAR    3.96156E-02   -22.32    0.00000E+00     0.00
 -120.00    50.00       0.47 -999.99    0.47    0.00000     0.00  LINEAR    4.20040E-02   -19.67    0.00000E+00     0.00
 -115.00    50.00       0.89 -999.99    0.89    0.00000     0.00  LINEAR    4.40731E-02   -16.89    0.00000E+00     0.00
 -110.00    50.00       1.22 -999.99    1.22    0.00000     0.00  LINEAR    4.57999E-02   -13.98    0.00000E+00     0.00
 -105.00    50.00       1.48 -999.99    1.48    0.00000     0.00  LINEAR    4.71647E-02   -10.99    0.00000E+00     0.00
 -100.00    50.00       1.66 -999.99    1.66    0.00000     0.00  LINEAR    4.81516E-02    -7.92    0.00000E+00     0.00
  -95.00    50.00       1.76 -999.99    1.76    0.00000     0.00  LINEAR    4.87486E-02    -4.80    0.00000E+00     0.00
  -90.00    50.00       1.80 -999.99    1.80    0.00000     0.00  LINEAR    4.89484E-02    -1.66    0.00000E+00     0.00
  -85.00    50.00       1.76 -999.99    1.76    0.00000     0.00  LINEAR    4.87486E-02     1.48    0.00000E+00     0.00
  -80.00    50.00       1.66 -999.99    1.66    0.00000     0.00  LINEAR    4.81516E-02     4.59    0.00000E+00     0.00
  -75.00    50.00       1.48 -999.99    1.48    0.00000     0.00  LINEAR    4.71647E-02     7.66    0.00000E+00     0.00
  -70.00    50.00       1.22 -999.99    1.22    0.00000     0.00  LINEAR    4.57999E-02    10.66    0.00000E+00     0.00
  -65.00    50.00       0.89 -999.99    0.89    0.00000     0.00  LINEAR    4.40731E-02    13.56    0.00000E+00     0.00
  -60.00    50.00       0.47 -999.99    0.47    0.00000     0.00  LINEAR    4.20040E-02    16.35    0.00000E+00     0.00
  -55.00    50.00      -0.04 -999.99   -0.04    0.00000     0.00  LINEAR    3.96156E-02    19.00    0.00000E+00     0.00
  -50.00    50.00      -0.65 -999.99   -0.65    0.00000     0.00  LINEAR    3.69329E-02    21.50    0.00000E+00     0.00
  -45.00    50.00      -1.37 -999.99   -1.37    0.00000     0.00  LINEAR    3.39828E-02    23.82    0.00000E+00     0.00
  -40.00    50.00      -2.23 -999.99   -2.23    0.00000     0.00  LINEAR    3.07932E-02    25.94    0.00000E+00     0.00
  -35.00    50.00      -3.24 -999.99   -3.24    0.00000     0.00  LINEAR    2.73927E-02    27.85    0.00000E+00     0.00
  -30.00    50.00      -4.46 -999.99   -4.46    0.00000     0.00  LINEAR    2.38095E-02    29.54    0.00000E+00     0.00
  -25.00    50.00      -5.94 -999.99   -5.94    0.00000     0.00  LINEAR    2.00718E-02    31.00    0.00000E+00     0.00
  -20.00    50.00      -7.80 -999.99   -7.80    0.00000     0.00  LINEAR    1.62070E-02    32.20    0.00000E+00     0.00
  -15.00    50.00     -10.24 -999.99  -10.24    0.00000     0.00  LINEAR    1.22419E-02    33.14    0.00000E+00     0.00
  -10.00    50.00     -13.72 -999.99  -13.72    0.00000     0.00  LINEAR    8.20221E-03    33.83    0.00000E+00     0.00
   -5.00    50.00     -19.71 -999.99  -19.71    0.00000     0.00  LINEAR    4.11335E-03    34.24    0.00000E+00     0.00
    0.00    50.00    -999.99 -999.99 -999.99    0.00000     0.00            0.00000E+00     0.00    0.00000E+00     0.00
 -180.00    55.00    -999.99 -999.99 -999.99    0.00000     0.00            4.81580E-13   142.32    0.00000E+00     0.00
 -175.00    55.00     -19.71 -999.99  -19.71    0.00000     0.00  LINEAR    4.11335E-03   -37.54    0.00000E+00     0.00
 -170.00    55.00     -13.72 -999.99  -13.72    0.00000     0.00  LINEAR    8.20221E-03   -37.13    0.00000E+00     0.00
 -165.00    55.00     -10.24 -999.99  -10.24    0.00000     0.00  LINEAR    1.22419E-02   -36.45    0.00000E+00     0.00
 -160.00    55.00      -7.80 -999.99   -7.80    0.00000     0.00  LINEAR    1.62070E-02   -35.50    0.00000E+00     0.00
 -155.00    55.00      -5.94 -999.99   -5.94    0.00000     0.00  LINEAR    2.00718E-02   -34.30    0.00000E+00     0.00
 -150.00    55.00      -4.46 -999.99   -4.46    0.00000     0.00  LINEAR    2.38095E-02   -32.85    0.00000E+00     0.00
 -145.00    55.00      -3.24 -999.99   -3.24    0.00000     0.00  LINEAR    2.73927E-02   -31.16    0.00000E+00     0.00
 -140.00    55.00      -2.23 -999.99   -2.23    0.00000     0.00  LINEAR    3.07932E-02   -29.25    0.00000E+00     0.00
 -135.00    55.00      -1.37 -999.99   -1.37    0.00000     0.00  LINEAR    3.39828E-02   -27.13    0.00000E+00     0.00
 -130.00    55.00      -0.65 -999.99   -0.65    0.00000     0.00  LINEAR    3.69329E-02   -24.81    0.00000E+00     0.00
 -125.00    55.00      -0.04 -999.99   -0.04    0.00000     0.00  LINEAR    3.96156E-02   -22.32    0.00000E+00     0.00
 -120.00    55.00       0.47 -999.99    0.47    0.00000     0.00  LINEAR    4.20040E-02   -19.67    0.00000E+00     0.00
 -115.00    55.00       0.89 -999.99    0.89    0.00000     0.00  LINEAR    4.40731E-02   -16.89    0.00000E+00     0.00
 -110.00    55.00       1.22 -999.99    1.22    0.00000     0.00  LINEAR    4.57999E-02   -13.98    0.00000E+00     0.00
 -105.00    55.00       1.48 -999.99    1.48    0.00000     0.00  LINEAR    4.71647E-02   -10.99    0.00000E+00     0.00
 -100.00    55.00       1.66 -999.99    1.66    0.00000     0.00  LINEAR    4.81516E-02    -7.92    0.00000E+00     0.00
  -95.00    55.00       1.76 -999.99    1.76    0.00000     0.00  LINEAR    4.87486E-02    -4.80    0.00000E+00     0.00
  -90.00    55.00       1.80 -999.99    1.80    0.00000     0.00  LINEAR    4.89484E-02    -1.66    0.00000E+00     0.00
  -85.00    55.00       1.76 -999.99    1.76    0.00000     0.00  LINEAR    4.87486E-02     1.48    0.00000E+00     0.00
  -80.00    55.00       1.66 -999.99    1.66    0.00000     0.00  LINEAR    4.81516E-02     4.59    0.00000E+00     0.00
  -75.00    55.00       1.48 -999.99    1.48    0.00000     0.00  LINEAR    4.71647E-02     7.66    0.00000E+00     0.00
  -70.00    55.00       1.22 -999.99    1.22    0.00000     0.00  LINEAR    4.57999E-02    10.66    0.00000E+00     0.00
  -65.00    55.00       0.89 -999.99    0.89    0.00000     0.00  LINEAR    4.40731E-02    13.56    0.00000E+00     0.00
  -60.00    55.00       0.47 -999.99    0.47    0.00000     0.00  LINEAR    4.20040E-02    16.35    0.00000E+00     0.00
  -55.00    55.00      -0.04 -999.99   -0.04    0.00000     0.00  LINEAR    3.96156E-02    19.00    0.00000E+00     0.00
  -50.00    55.00      -0.65 -999.99   -0.65    0.00000     0.00  LINEAR    3.69329E-02    21.50    0.00000E+00     0.00
  -45.00    55.00      -1.37 -999.99   -1.37    0.00000     0.00  LINEAR    3.39828E-02    23.82    0.00000E+00     0.00
  -40.00    55.00      -2.23 -999.99   -2.23    0.00000     0.00  LINEAR    3.07932E-02    25.94    0.00000E+00     0.00
  -35.00    55.00      -3.24 -999.99   -3.24    0.00000     0.00  LINEAR    2.73927E-02    27.85    0.00000E+00     0.00
  -30.00    55.00      -4.46 -999.99   -4.46    0.00000     0.00  LINEAR    2.38095E-02    29.54    0.00000E+00     0.00
  -25.00    55.00      -5.94 -999.99   -5.94    0.00000     0.00  LINEAR    2.00718E-02    31.00    0.00000E+00     0.00
  -20.00    55.00      -7.80 -999.99   -7.80    0.00000     0.00  LINEAR    1.62070E-02    32.20    0.00000E+00     0.00
  -15.00    55.00     -10.24 -999.99  -10.24    0.00000     0.00  LINEAR    1.22419E-02    33.14    0.00000E+00     0.00
  -10.00    55.00     -13.72 -999.99  -13.72    0.00000     0.00  LINEAR    8.20221E-03    33.83    0.00000E+00     0.00
   -5.00    55.00     -19.71 -999.99  -19.71    0.00000     0.00  LINEAR    4.11335E-03    34.24    0.00000E+00     0.00
    0.00    55.00    -999.99 -999.99 -999.99    0.00000     0.00            0.00000E+00     0.00    0.00000E+00     0.00
 -180.00    60.00    -999.99 -999.99 -999.99    0.00000     0.00            4.81580E-13   142.32    0.00000E+00     0.00
 -175.00    60.00     -19.71 -999.99  -19.71    0.00000     0.00  LINEAR    4.11335E-03   -37.54    0.00000E+00     0.00
 -170.00    60.00     -13.72 -999.99  -13.72    0.00000     0.00  LINEAR    8.20221E-03   -37.13    0.00000E+00     0.00
 -165.00    60.00     -10.24 -999.99  -10.24    0.00000     0.00  LINEAR    1.22419E-02   -36.45    0.00000E+00     0.00
 -160.00    60.00      -7.80 -999.99   -7.80    0.00000     0.00  LINEAR    1.62070E-02   -35.50    0.00000E+00     0.00
 -155.00    60.00      -5.94 -999.99   -5.94    0.00000     0.00  LINEAR    2.00718E-02   -34.30    0.00000E+00     0.00
 -150.00    60.00      -4.46 -999.99   -4.46    0.00000     0.00  LINEAR    2.38095E-02   -32.85    0.00000E+00     0.00
 -145.00    60.00      -3.24 -999.99   -3.24    0.00000     0.00  LINEAR    2.73927E-02   -31.16    0.00000E+00     0.00
 -140.00    60.00      -2.23 -999.99   -2.23    0.00000     0.00  LINEAR    3.07932E-02   -29.25    0.00000E+00     0.00
 -135.00    60.00      -1.37 -999.99   -1.37    0.00000     0.00  LINEAR    3.39828E-02   -27.13    0.00000E+00     0.00
 -130.00    60.00      -0.65 -999.99   -0.65    0.00000     0.00  LINEAR    3.69329E-02   -24.81    0.00000E+00     0.00
 -125.00    60.00      -0.04 -999.99   -0.04    0.00000     0.00  LINEAR    3.96156E-02   -22.32    0.00000E+00     0.00
 -120.00    60.00       0.47 -999.99    0.47    0.00000     0.00  LINEAR    4.20040E-02   -19.67    0.00000E+00     0.00
 -115.00    60.00       0.89 -999.99    0.89    0.00000     0.00  LINEAR    4.40731E-02   -16.89    0.00000E+00     0.00
 -110.00    60.00       1.22 -999.99    1.22    0.00000     0.00  LINEAR    4.57999E-02   -13.98    0.00000E+00     0.00
 -105.00    60.00       1.48 -999.99    1.48    0.00000     0.00  LINEAR    4.71647E-02   -10.99    0.00000E+00     0.00
 -100.00    60.00       1.66 -999.99    1.66    0.00000     0.00  LINEAR    4.81516E-02    -7.92    0.00000E+00     0.00
  -95.00    60.00       1.76 -999.99    1.76    0.00000     0.00  LINEAR    4.87486E-02    -4.80    0.00000E+00     0.00
  -90.00    60.00       1.80 -999.99    1.80    0.00000     0.00  LINEAR    4.89484E-02    -1.66    0.00000E+00     0.00
  -85.00    60.00       1.76 -999.99    1.76    0.00000     0.00  LINEAR    4.87486E-02     1.48    0.00000E+00     0.00
  -80.00    60.00       1.66 -999.99    1.66    0.00000     0.00  LINEAR    4.81516E-02     4.59    0.00000E+00     0.00
  -75.00    60.00       1.48 -999.99    1.48    0.00000     0.00  LINEAR    4.71647E-02     7.66    0.00000E+00     0.00
  -70.00    60.00       1.22 -999.99    1.22    0.00000     0.00  LINEAR    4.57999E-02    10.66    0.00000E+00     0.00
  -65.00    60.00       0.89 -999.99    0.89    0.00000     0.00  LINEAR    4.40731E-02    13.56    0.00000E+00     0.00
  -60.00    60.00       0.47 -999.99    0.47    0.00000     0.00  LINEAR    4.20040E-02    16.35    0.00000E+00     0.00
  -55.00    60.00      -0.04 -999.99   -0.04    0.00000     0.00  LINEAR    3.96156E-02    19.00    0.00000E+00     0.00
  -50.00    60.00      -0.65 -999.99   -0.65    0.00000     0.00  LINEAR    3.69329E-02    21.50    0.00000E+00     0.00
  -45.00    60.00      -1.37 -999.99   -1.37    0.00000     0.00  LINEAR    3.39828E-02    23.82    0.00000E+00     0.00
  -40.00    60.00      -2.23 -999.99   -2.23    0.00000     0.00  LINEAR    3.07932E-02    25.94    0.00000E+00     0.00
  -35.00    60.00      -3.24 -999.99   -3.24    0.00000     0.00  LINEAR    2.73927E-02    27.85    0.00000E+00     0.00
  -30.00    60.00      -4.46 -999.99   -4.46    0.00000     0.00  LINEAR    2.38095E-02    29.54    0.00000E+00     0.00
  -25.00    60.00      -5.94 -999.99   -5.94    0.00000     0.00  LINEAR    2.00718E-02    31.00    0.00000E+00     0.00
  -20.00    60.00      -7.80 -999.99   -7.80    0.00000     0.00  LINEAR    1.62070E-02    32.20    0.00000E+00     0.00
  -15.00    60.00     -10.24 -999.99  -10.24    0.00000     0.00  LINEAR    1.22419E-02    33.14    0.00000E+00     0.00
  -10.00    60.00     -13.72 -999.99  -13.72    0.00000     0.00  LINEAR    8.20221E-03    33.83    0.00000E+00     0.00
   -5.00    60.00     -19.71 -999.99  -19.71    0.00000     0.00  LINEAR    4.11335E-03    34.24    0.00000E+00     0.00
    0.00    60.00    -999.99 -999.99 -999.99    0.00000     0.00            0.00000E+00     0.00    0.00000E+00     0.00
 -180.00    65.00    -999.99 -999.99 -999.99    0.00000     0.00            4.81580E-13   142.32    0.00000E+00     0.00
 -175.00    65.00     -19.71 -999.99  -19.71    0.00000     0.00  LINEAR    4.11335E-03   -37.54    0.00000E+00     0.00
 -170.00    65.00     -13.72 -999.99  -13.72    0.00000     0.00  LINEAR    8.20221E-03   -37.13    0.00000E+00     0.00
 -165.00    65.00     -10.24 -999.99  -10.24    0.00000     0.00  LINEAR    1.22419E-02   -36.45    0.00000E+00     0.00
 -160.00    65.00      -7.80 -999.99   -7.80    0.00000     0.00  LINEAR    1.62070E-02   -35.50    0.00000E+00     0.00
 -155.00    65.00      -5.94 -999.99   -5.94    0.00000     0.00  LINEAR    2.00718E-02   -34.30    0.00000E+00     0.00
 -150.00    65.00      -4.46 -999.99   -4.46    0.00000     0.00  LINEAR    2.38095E-02   -32.85    0.00000E+00     0.00
 -145.00    65.00      -3.24 -999.99   -3.24    0.00000     0.00  LINEAR    2.73927E-02   -31.16    0.00000E+00     0.00
 -140.00    65.00      -2.23 -999.99   -2.23    0.00000     0.00  LINEAR    3.07932E-02   -29.25    0.00000E+00     0.00
 -135.00    65.00      -1.37 -999.99   -1.37    0.00000     0.00  LINEAR    3.39828E-02   -27.13    0.00000E+00     0.00
 -130.00    65.00      -0.65 -999.99   -0.65    0.00000     0.00  LINEAR    3.69329E-02   -24.81    0.00000E+00     0.00
 -125.00    65.00      -0.04 -999.99   -0.04    0.00000     0.00  LINEAR    3.96156E-02   -22.32    0.00000E+00     0.00
 -120.00    65.00       0.47 -999.99    0.47    0.00000     0.00  LINEAR    4.20040E-02   -19.67    0.00000E+00     0.00
 -115.00    65.00       0.89 -999.99    0.89    0.00000     0.00  LINEAR    4.40731E-02   -16.89    0.00000E+00     0.00
 -110.00    65.00       1.22 -999.99    1.22    0.00000     0.00  LINEAR    4.57999E-02   -13.98    0.00000E+00     0.00
 -105.00    65.00       1.48 -999.99    1.48    0.00000     0.00  LINEAR    4.71647E-02   -10.99    0.00000E+00     0.00
 -100.00    65.00       1.66 -999.99    1.66    0.00000     0.00  LINEAR    4.81516E-02    -7.92    0.00000E+00     0.00
  -95.00    65.00       1.76 -999.99    1.76    0.00000     0.00  LINEAR    4.87486E-02    -4.80    0.00000E+00     0.00
  -90.00    65.00       1.80 -999.99    1.80    0.00000     0.00  LINEAR    4.89484E-02    -1.66    0.00000E+00     0.00
  -85.00    65.00       1.76 -999.99    1.76    0.00000     0.00  LINEAR    4.87486E-02     1.48    0.00000E+00     0.00
  -80.00    65.00       1.66 -999.99    1.66    0.00000     0.00  LINEAR    4.81516E-02     4.59    0.00000E+00     0.00
  -75.00    65.00       1.48 -999.99    1.48    0.00000     0.00  LINEAR    4.71647E-02     7.66    0.00000E+00     0.00
  -70.00    65.00       1.22 -999.99    1.22    0.00000     0.00  LINEAR    4.57999E-02    10.66    0.00000E+00     0.00
  -65.00    65.00       0.89 -999.99    0.89    0.00000     0.00  LINEAR    4.40731E-02    13.56    0.00000E+00     0.00
  -60.00    65.00       0.47 -999.99    0.47    0.00000     0.00  LINEAR    4.20040E-02    16.35    0.00000E+00     0.00
  -55.00    65.00      -0.04 -999.99   -0.04    0.00000     0.00  LINEAR    3.96156E-02    19.00    0.00000E+00     0.00
  -50.00    65.00      -0.65 -999.99   -0.65    0.00000     0.00  LINEAR    3.69329E-02    21.50    0.00000E+00     0.00
  -45.00    65.00      -1.37 -999.99   -1.37    0.00000     0.00  LINEAR    3.39828E-02    23.82    0.00000E+00     0.00
  -40.00    65.00      -2.23 -999.99   -2.23    0.00000     0.00  LINEAR    3.07932E-02    25.94    0.00000E+00     0.00
  -35.00    65.00      -3.24 -999.99   -3.24    0.00000     0.00  LINEAR    2.73927E-02    27.85    0.00000E+00     0.00
  -30.00    65.00      -4.46 -999.99   -4.46    0.00000     0.00  LINEAR    2.38095E-02    29.54    0.00000E+00     0.00
  -25.00    65.00      -5.94 -999.99   -5.94    0.00000     0.00  LINEAR    2.00718E-02    31.00    0.00000E+00     0.00
  -20.00    65.00      -7.80 -999.99   -7.80    0.00000     0.00  LINEAR    1.62070E-02    32.20    0.00000E+00     0.00
  -15.00    65.00     -10.24 -999.99  -10.24    0.00000     0.00  LINEAR    1.22419E-02    33.14    0.00000E+00     0.00
  -10.00    65.00     -13.72 -999.99  -13.72    0.00000     0.00  LINEAR    8.20221E-03    33.83    0.00000E+00     0.00
   -5.00    65.00     -19.71 -999.99  -19.71    0.00000     0.00  LINEAR    4.11335E-03    34.24    0.00000E+00     0.00
    0.00    65.00    -999.99 -999.99 -999.99    0.00000     0.00            0.00000E+00     0.00    0.00000E+00     0.00
 -180.00    70.00    -999.99 -999.99 -999.99    0.00000     0.00            4.81580E-13   142.32    0.00000E+00     0.00
 -175.00    70.00     -19.71 -999.99  -19.71    0.00000     0.00  LINEAR    4.11335E-03   -37.54    0.00000E+00     0.00
 -170.00    70.00     -13.72 -999.99  -13.72    0.00000     0.00  LINEAR    8.20221E-03   -37.13    0.00000E+00     0.00
 -165.00    70.00     -10.24 -999.99  -10.24    0.00000     0.00  LINEAR    1.22419E-02   -36.45    0.00000E+00     0.00
 -160.00    70.00      -7.80 -999.99   -7.80    0.00000     0.00  LINEAR    1.62070E-02   -35.50    0.00000E+00     0.00
 -155.00    70.00      -5.94 -999.99   -5.94    0.00000     0.00  LINEAR    2.00718E-02   -34.30    0.00000E+00     0.00
 -150.00    70.00      -4.46 -999.99   -4.46    0.00000     0.00  LINEAR    2.38095E-02   -32.85    0.00000E+00     0.00
 -145.00    70.00      -3.24 -999.99   -3.24    0.00000     0.00  LINEAR    2.73927E-02   -31.16    0.00000E+00     0.00
 -140.00    70.00      -2.23 -999.99   -2.23    0.00000     0.00  LINEAR    3.07932E-02   -29.25    0.00000E+00     0.00
 -135.00    70.00      -1.37 -999.99   -1.37    0.00000     0.00  LINEAR    3.39828E-02   -27.13    0.00000E+00     0.00
 -130.00    70.00      -0.65 -999.99   -0.65    0.00000     0.00  LINEAR    3.69329E-02   -24.81    0.00000E+00     0.00
 -125.00    70.00      -0.04 -999.99   -0.04    0.00000     0.00  LINEAR    3.96156E-02   -22.32    0.00000E+00     0.00
 -120.00    70.00       0.47 -999.99    0.47    0.00000     0.00  LINEAR    4.20040E-02   -19.67    0.00000E+00     0.00
 -115.00    70.00       0.89 -999.99    0.89    0.00000     0.00  LINEAR    4.40731E-02   -16.89    0.00000E+00     0.00
 -110.00    70.00       1.22 -999.99    1.22    0.00000     0.00  LINEAR    4.57999E-02   -13.98    0.00000E+00     0.00
 -105.00    70.00       1.48 -999.99    1.48    0.00000     0.00  LINEAR    4.71647E-02   -10.99    0.00000E+00     0.00
 -100.00    70.00       1.66 -999.99    1.66    0.00000     0.00  LINEAR    4.81516E-02    -7.92    0.00000E+00     0.00
  -95.00    70.00       1.76 -999.99    1.76    0.00000     0.00  LINEAR    4.87486E-02    -4.80    0.00000E+00     0.00
  -90.00    70.00       1.80 -999.99    1.80    0.00000     0.00  LINEAR    4.89484E-02    -1.66    0.00000E+00     0.00
  -85.00    70.00       1.76 -999.99    1.76    0.00000     0.00  LINEAR    4.87486E-02     1.48    0.00000E+00     0.00
  -80.00    70.00       1.66 -999.99    1.66    0.00000     0.00  LINEAR    4.81516E-02     4.59    0.00000E+00     0.00
  -75.00    70.00       1.48 -999.99    1.48    0.00000     0.00  LINEAR    4.71647E-02     7.66    0.00000E+00     0.00
  -70.00    70.00       1.22 -999.99    1.22    0.00000     0.00  LINEAR    4.57999E-02    10.66    0.00000E+00     0.00
  -65.00    70.00       0.89 -999.99    0.89    0.00000     0.00  LINEAR    4.40731E-02    13.56    0.00000E+00     0.00
  -60.00    70.00       0.47 -999.99    0.47    0.00000     0.00  LINEAR    4.20040E-02    16.35    0.00000E+00     0.00
  -55.00    70.00      -0.04 -999.99   -0.04    0.00000     0.00  LINEAR    3.96156E-02    19.00    0.00000E+00     0.00
  -50.00    70.00      -0.65 -999.99   -0.65    0.00000     0.00  LINEAR    3.69329E-02    21.50    0.00000E+00     0.00
  -45.00    70.00      -1.37 -999.99   -1.37    0.00000     0.00  LINEAR    3.39828E-02    23.82    0.00000E+00     0.00
  -40.00    70.00      -2.23 -999.99   -2.23    0.00000     0.00  LINEAR    3.07932E-02    25.94    0.00000E+00     0.00
  -35.00    70.00      -3.24 -999.99   -3.24    0.00000     0.00  LINEAR    2.73927E-02    27.85    0.00000E+00     0.00
  -30.00    70.00      -4.46 -999.99   -4.46    0.00000     0.00  LINEAR    2.38095E-02    29.54    0.00000E+00     0.00
  -25.00    70.00      -5.94 -999.99   -5.94    0.00000     0.00  LINEAR    2.00718E-02    31.00    0.00000E+00     0.00
  -20.00    70.00      -7.80 -999.99   -7.80    0.00000     0.00  LINEAR    1.62070E-02    32.20    0.00000E+00     0.00
  -15.00    70.00     -10.24 -999.99  -10.24    0.00000     0.00  LINEAR    1.22419E-02    33.14    0.00000E+00     0.00
  -10.00    70.00     -13.72 -999.99  -13.72    0.00000     0.00  LINEAR    8.20221E-03    33.83    0.00000E+00     0.00
   -5.00    70.00     -19.71 -999.99  -19.71    0.00000     0.00  LINEAR    4.11335E-03    34.24    0.00000E+00     0.00
    0.00    70.00    -999.99 -999.99 -999.99    0.00000     0.00            0.00000E+00     0.00    0.00000E+00     0.00
 -180.00    75.00    -999.99 -999.99 -999.99    0.00000     0.00            4.81580E-13   142.32    0.00000E+00     0.00
 -175.00    75.00     -19.71 -999.99  -19.71    0.00000     0.00  LINEAR    4.11335E-03   -37.54    0.00000E+00     0.00
 -170.00    75.00     -13.72 -999.99  -13.72    0.00000     0.00  LINEAR    8.20221E-03   -37.13    0.00000E+00     0.00
 -165.00    75.00     -10.24 -999.99  -10.24    0.00000     0.00  LINEAR    1.22419E-02   -36.45    0.00000E+00     0.00
 -160.00    75.00      -7.80 -999.99   -7.80    0.00000     0.00  LINEAR    1.62070E-02   -35.50    0.00000E+00     0.00
 -155.00    75.00      -5.94 -999.99   -5.94    0.00000     0.00  LINEAR    2.00718E-02   -34.30    0.00000E+00     0.00
 -150.00    75.00      -4.46 -999.99   -4.46    0.00000     0.00  LINEAR    2.38095E-02   -32.85    0.00000E+00     0.00
 -145.00    75.00      -3.24 -999.99   -3.24    0.00000     0.00  LINEAR    2.73927E-02   -31.16    0.00000E+00     0.00
 -140.00    75.00      -2.23 -999.99   -2.23    0.00000     0.00  LINEAR    3.07932E-02   -29.25    0.00000E+00     0.00
 -135.00    75.00      -1.37 -999.99   -1.37    0.00000     0.00  LINEAR    3.39828E-02   -27.13    0.00000E+00     0.00
 -130.00    75.00      -0.65 -999.99   -0.65    0.00000     0.00  LINEAR    3.69329E-02   -24.81    0.00000E+00     0.00
 -125.00    75.00      -0.04 -999.99   -0.04    0.00000     0.00  LINEAR    3.96156E-02   -22.32    0.00000E+00     0.00
 -120.00    75.00       0.47 -999.99    0.47    0.00000     0.00  LINEAR    4.20040E-02   -19.67    0.00000E+00     0.00
 -115.00    75.00       0.89 -999.99    0.89    0.00000     0.00  LINEAR    4.40731E-02   -16.89    0.00000E+00     0.00
 -110.00    75.00       1.22 -999.99    1.22    0.00000     0.00  LINEAR    4.57999E-02   -13.98    0.00000E+00     0.00
 -105.00    75.00       1.48 -999.99    1.48    0.00000     0.00  LINEAR    4.71647E-02   -10.99    0.00000E+00     0.00
 -100.00    75.00       1.66 -999.99    1.66    0.00000     0.00  LINEAR    4.81516E-02    -7.92    0.00000E+00     0.00
  -95.00    75.00       1.76 -999.99    1.76    0.00000     0.00  LINEAR    4.87486E-02    -4.80    0.00000E+00     0.00
  -90.00    75.00       1.80 -999.99    1.80    0.00000     0.00  LINEAR    4.89484E-02    -1.66    0.00000E+00     0.00
  -85.00    75.00       1.76 -999.99    1.76    0.00000     0.00  LINEAR    4.87486E-02     1.48    0.00000E+00     0.00
  -80.00    75.00       1.66 -999.99    1.66    0.00000     0.00  LINEAR    4.81516E-02     4.59    0.00000E+00     0.00
  -75.00    75.00       1.48 -999.99    1.48    0.00000     0.00  LINEAR    4.71647E-02     7.66    0.00000E+00     0.00
  -70.00    75.00       1.22 -999.99    1.22    0.00000     0.00  LINEAR    4.57999E-02    10.66    0.00000E+00     0.00
  -65.00    75.00       0.89 -999.99    0.89    0.00000     0.00  LINEAR    4.40731E-02    13.56    0.00000E+00     0.00
  -60.00    75.00       0.47 -999.99    0.47    0.00000     0.00  LINEAR    4.20040E-02    16.35    0.00000E+00     0.00
  -55.00    75.00      -0.04 -999.99   -0.04    0.00000     0.00  LINEAR    3.96156E-02    19.00    0.00000E+00     0.00
  -50.00    75.00      -0.65 -999.99   -0.65    0.00000     0.00  LINEAR    3.69329E-02    21.50    0.00000E+00     0.00
  -45.00    75.00      -1.37 -999.99   -1.37    0.00000     0.00  LINEAR    3.39828E-02    23.82    0.00000E+00     0.00
  -40.00    75.00      -2.23 -999.99   -2.23    0.00000     0.00  LINEAR    3.07932E-02    25.94    0.00000E+00     0.00
  -35.00    75.00      -3.24 -999.99   -3.24    0.00000     0.00  LINEAR    2.73927E-02    27.85    0.00000E+00     0.00
  -30.00    75.00      -4.46 -999.99   -4.46    0.00000     0.00  LINEAR    2.38095E-02    29.54    0.00000E+00     0.00
  -25.00    75.00      -5.94 -999.99   -5.94    0.00000     0.00  LINEAR    2.00718E-02    31.00    0.00000E+00     0.00
  -20.00    75.00      -7.80 -999.99   -7.80    0.00000     0.00  LINEAR    1.62070E-02    32.20    0.00000E+00     0.00
  -15.00    75.00     -10.24 -999.99  -10.24    0.00000     0.00  LINEAR    1.22419E-02    33.14    0.00000E+00     0.00
  -10.00    75.00     -13.72 -999.99  -13.72    0.00000     0.00  LINEAR    8.20221E-03    33.83    0.00000E+00     0.00
   -5.00    75.00     -19.71 -999.99  -19.71    0.00000     0.00  LINEAR    4.11335E-03    34.24    0.00000E+00     0.00
    0.00    75.00    -999.99 -999.99 -999.99    0.00000     0.00            0.00000E+00     0.00    0.00000E+00     0.00
 -180.00    80.00    -999.99 -999.99 -999.99    0.00000     0.00            4.81580E-13   142.32    0.00000E+00     0.00
 -175.00    80.00     -19.71 -999.99  -19.71    0.00000     0.00  LINEAR    4.11335E-03   -37.54    0.00000E+00     0.00
 -170.00    80.00     -13.72 -999.99  -13.72    0.00000     0.00  LINEAR    8.20221E-03   -37.13    0.00000E+00     0.00
 -165.00    80.00     -10.24 -999.99  -10.24    0.00000     0.00  LINEAR    1.22419E-02   -36.45    0.00000E+00     0.00
 -160.00    80.00      -7.80 -999.99   -7.80    0.00000     0.00  LINEAR    1.62070E-02   -35.50    0.00000E+00     0.00
 -155.00    80.00      -5.94 -999.99   -5.94    0.00000     0.00  LINEAR    2.00718E-02   -34.30    0.00000E+00     0.00
 -150.00    80.00      -4.46 -999.99   -4.46    0.00000     0.00  LINEAR    2.38095E-02   -32.85    0.00000E+00     0.00
 -145.00    80.00      -3.24 -999.99   -3.24    0.00000     0.00  LINEAR    2.73927E-02   -31.16    0.00000E+00     0.00
 -140.00    80.00      -2.23 -999.99   -2.23    0.00000     0.00  LINEAR    3.07932E-02   -29.25    0.00000E+00     0.00
 -135.00    80.00      -1.37 -999.99   -1.37    0.00000     0.00  LINEAR    3.39828E-02   -27.13    0.00000E+00     0.00
 -130.00    80.00      -0.65 -999.99   -0.65    0.00000     0.00  LINEAR    3.69329E-02   -24.81    0.00000E+00     0.00
 -125.00    80.00      -0.04 -999.99   -0.04    0.00000     0.00  LINEAR    3.96156E-02   -22.32    0.00000E+00     0.00
 -120.00    80.00       0.47 -999.99    0.47    0.00000     0.00  LINEAR    4.20040E-02   -19.67    0.00000E+00     0.00
 -115.00    80.00       0.89 -999.99    0.89    0.00000     0.00  LINEAR    4.40731E-02   -16.89    0.00000E+00     0.00
[...]
  -60.00   340.00       0.47 -999.99    0.47    0.00000     0.00  LINEAR    4.20040E-02    16.35    0.00000E+00     0.00
  -55.00   340.00      -0.04 -999.99   -0.04    0.00000     0.00  LINEAR    3.96156E-02    19.00    0.00000E+00     0.00
  -50.00   340.00      -0.65 -999.99   -0.65    0.00000     0.00  LINEAR    3.69329E-02    21.50    0.00000E+00     0.00
  -45.00   340.00      -1.37 -999.99   -1.37    0.00000     0.00  LINEAR    3.39828E-02    23.82    0.00000E+00     0.00
  -40.00   340.00      -2.23 -999.99   -2.23    0.00000     0.00  LINEAR    3.07932E-02    25.94    0.00000E+00     0.00
  -35.00   340.00      -3.24 -999.99   -3.24    0.00000     0.00  LINEAR    2.73927E-02    27.85    0.00000E+00     0.00
  -30.00   340.00      -4.46 -999.99   -4.46    0.00000     0.00  LINEAR    2.38095E-02    29.54    0.00000E+00     0.00
  -25.00   340.00      -5.94 -999.99   -5.94    0.00000     0.00  LINEAR    2.00718E-02    31.00    0.00000E+00     0.00
  -20.00   340.00      -7.80 -999.99   -7.80    0.00000     0.00  LINEAR    1.62070E-02    32.20    0.00000E+00     0.00
  -15.00   340.00     -10.24 -999.99  -10.24    0.00000     0.00  LINEAR    1.22419E-02    33.14    0.00000E+00     0.00
  -10.00   340.00     -13.72 -999.99  -13.72    0.00000     0.00  LINEAR    8.20221E-03    33.83    0.00000E+00     0.00
   -5.00   340.00     -19.71 -999.99  -19.71    0.00000     0.00  LINEAR    4.11335E-03    34.24    0.00000E+00     0.00
    0.00   340.00    -999.99 -999.99 -999.99    0.00000     0.00            0.00000E+00     0.00    0.00000E+00     0.00
 -180.00   345.00    -999.99 -999.99 -999.99    0.00000     0.00            4.81580E-13   142.32    0.00000E+00     0.00
 -175.00   345.00     -19.71 -999.99  -19.71    0.00000     0.00  LINEAR    4.11335E-03   -37.54    0.00000E+00     0.00
 -170.00   345.00     -13.72 -999.99  -13.72    0.00000     0.00  LINEAR    8.20221E-03   -37.13    0.00000E+00     0.00
 -165.00   345.00     -10.24 -999.99  -10.24    0.00000     0.00  LINEAR    1.22419E-02   -36.45    0.00000E+00     0.00
 -160.00   345.00      -7.80 -999.99   -7.80    0.00000     0.00  LINEAR    1.62070E-02   -35.50    0.00000E+00     0.00
 -155.00   345.00      -5.94 -999.99   -5.94    0.00000     0.00  LINEAR    2.00718E-02   -34.30    0.00000E+00     0.00
 -150.00   345.00      -4.46 -999.99   -4.46    0.00000     0.00  LINEAR    2.38095E-02   -32.85    0.00000E+00     0.00
 -145.00   345.00      -3.24 -999.99   -3.24    0.00000     0.00  LINEAR    2.73927E-02   -31.16    0.00000E+00     0.00
 -140.00   345.00      -2.23 -999.99   -2.23    0.00000     0.00  LINEAR    3.07932E-02   -29.25    0.00000E+00     0.00
 -135.00   345.00      -1.37 -999.99   -1.37    0.00000     0.00  LINEAR    3.39828E-02   -27.13    0.00000E+00     0.00
 -130.00   345.00      -0.65 -999.99   -0.65    0.00000     0.00  LINEAR    3.69329E-02   -24.81    0.00000E+00     0.00
 -125.00   345.00      -0.04 -999.99   -0.04    0.00000     0.00  LINEAR    3.96156E-02   -22.32    0.00000E+00     0.00
 -120.00   345.00       0.47 -999.99    0.47    0.00000     0.00  LINEAR    4.20040E-02   -19.67    0.00000E+00     0.00
 -115.00   345.00       0.89 -999.99    0.89    0.00000     0.00  LINEAR    4.40731E-02   -16.89    0.00000E+00     0.00
 -110.00   345.00       1.22 -999.99    1.22    0.00000     0.00  LINEAR    4.57999E-02   -13.98    0.00000E+00     0.00
 -105.00   345.00       1.48 -999.99    1.48    0.00000     0.00  LINEAR    4.71647E-02   -10.99    0.00000E+00     0.00
 -100.00   345.00       1.66 -999.99    1.66    0.00000     0.00  LINEAR    4.81516E-02    -7.92    0.00000E+00     0.00
  -95.00   345.00       1.76 -999.99    1.76    0.00000     0.00  LINEAR    4.87486E-02    -4.80    0.00000E+00     0.00
  -90.00   345.00       1.80 -999.99    1.80    0.00000     0.00  LINEAR    4.89484E-02    -1.66    0.00000E+00     0.00
  -85.00   345.00       1.76 -999.99    1.76    0.00000     0.00  LINEAR    4.87486E-02     1.48    0.00000E+00     0.00
  -80.00   345.00       1.66 -999.99    1.66    0.00000     0.00  LINEAR    4.81516E-02     4.59    0.00000E+00     0.00
  -75.00   345.00       1.48 -999.99    1.48    0.00000     0.00  LINEAR    4.71647E-02     7.66    0.00000E+00     0.00
  -70.00   345.00       1.22 -999.99    1.22    0.00000     0.00  LINEAR    4.57999E-02    10.66    0.00000E+00     0.00
  -65.00   345.00       0.89 -999.99    0.89    0.00000     0.00  LINEAR    4.40731E-02    13.56    0.00000E+00     0.00
  -60.00   345.00       0.47 -999.99    0.47    0.00000     0.00  LINEAR    4.20040E-02    16.35    0.00000E+00     0.00
  -55.00   345.00      -0.04 -999.99   -0.04    0.00000     0.00  LINEAR    3.96156E-02    19.00    0.00000E+00     0.00
  -50.00   345.00      -0.65 -999.99   -0.65    0.00000     0.00  LINEAR    3.69329E-02    21.50    0.00000E+00     0.00
  -45.00   345.00      -1.37 -999.99   -1.37    0.00000     0.00  LINEAR    3.39828E-02    23.82    0.00000E+00     0.00
  -40.00   345.00      -2.23 -999.99   -2.23    0.00000     0.00  LINEAR    3.07932E-02    25.94    0.00000E+00     0.00
  -35.00   345.00      -3.24 -999.99   -3.24    0.00000     0.00  LINEAR    2.73927E-02    27.85    0.00000E+00     0.00
  -30.00   345.00      -4.46 -999.99   -4.46    0.00000     0.00  LINEAR    2.38095E-02    29.54    0.00000E+00     0.00
  -25.00   345.00      -5.94 -999.99   -5.94    0.00000     0.00  LINEAR    2.00718E-02    31.00    0.00000E+00     0.00
  -20.00   345.00      -7.80 -999.99   -7.80    0.00000     0.00  LINEAR    1.62070E-02    32.20    0.00000E+00     0.00
  -15.00   345.00     -10.24 -999.99  -10.24    0.00000     0.00  LINEAR    1.22419E-02    33.14    0.00000E+00     0.00
  -10.00   345.00     -13.72 -999.99  -13.72    0.00000     0.00  LINEAR    8.20221E-03    33.83    0.00000E+00     0.00
   -5.00   345.00     -19.71 -999.99  -19.71    0.00000     0.00  LINEAR    4.11335E-03    34.24    0.00000E+00     0.00
    0.00   345.00    -999.99 -999.99 -999.99    0.00000     0.00            0.00000E+00     0.00    0.00000E+00     0.00
 -180.00   350.00    -999.99 -999.99 -999.99    0.00000     0.00            4.81580E-13   142.32    0.00000E+00     0.00
 -175.00   350.00     -19.71 -999.99  -19.71    0.00000     0.00  LINEAR    4.11335E-03   -37.54    0.00000E+00     0.00
 -170.00   350.00     -13.72 -999.99  -13.72    0.00000     0.00  LINEAR    8.20221E-03   -37.13    0.00000E+00     0.00
 -165.00   350.00     -10.24 -999.99  -10.24    0.00000     0.00  LINEAR    1.22419E-02   -36.45    0.00000E+00     0.00
 -160.00   350.00      -7.80 -999.99   -7.80    0.00000     0.00  LINEAR    1.62070E-02   -35.50    0.00000E+00     0.00
 -155.00   350.00      -5.94 -999.99   -5.94    0.00000     0.00  LINEAR    2.00718E-02   -34.30    0.00000E+00     0.00
 -150.00   350.00      -4.46 -999.99   -4.46    0.00000     0.00  LINEAR    2.38095E-02   -32.85    0.00000E+00     0.00
 -145.00   350.00      -3.24 -999.99   -3.24    0.00000     0.00  LINEAR    2.73927E-02   -31.16    0.00000E+00     0.00
 -140.00   350.00      -2.23 -999.99   -2.23    0.00000     0.00  LINEAR    3.07932E-02   -29.25    0.00000E+00     0.00
 -135.00   350.00      -1.37 -999.99   -1.37    0.00000     0.00  LINEAR    3.39828E-02   -27.13    0.00000E+00     0.00
 -130.00   350.00      -0.65 -999.99   -0.65    0.00000     0.00  LINEAR    3.69329E-02   -24.81    0.00000E+00     0.00
 -125.00   350.00      -0.04 -999.99   -0.04    0.00000     0.00  LINEAR    3.96156E-02   -22.32    0.00000E+00     0.00
 -120.00   350.00       0.47 -999.99    0.47    0.00000     0.00  LINEAR    4.20040E-02   -19.67    0.00000E+00     0.00
 -115.00   350.00       0.89 -999.99    0.89    0.00000     0.00  LINEAR    4.40731E-02   -16.89    0.00000E+00     0.00
 -110.00   350.00       1.22 -999.99    1.22    0.00000     0.00  LINEAR    4.57999E-02   -13.98    0.00000E+00     0.00
 -105.00   350.00       1.48 -999.99    1.48    0.00000     0.00  LINEAR    4.71647E-02   -10.99    0.00000E+00     0.00
 -100.00   350.00       1.66 -999.99    1.66    0.00000     0.00  LINEAR    4.81516E-02    -7.92    0.00000E+00     0.00
  -95.00   350.00       1.76 -999.99    1.76    0.00000     0.00  LINEAR    4.87486E-02    -4.80    0.00000E+00     0.00
  -90.00   350.00       1.80 -999.99    1.80    0.00000     0.00  LINEAR    4.89484E-02    -1.66    0.00000E+00     0.00
  -85.00   350.00       1.76 -999.99    1.76    0.00000     0.00  LINEAR    4.87486E-02     1.48    0.00000E+00     0.00
  -80.00   350.00       1.66 -999.99    1.66    0.00000     0.00  LINEAR    4.81516E-02     4.59    0.00000E+00     0.00
  -75.00   350.00       1.48 -999.99    1.48    0.00000     0.00  LINEAR    4.71647E-02     7.66    0.00000E+00     0.00
  -70.00   350.00       1.22 -999.99    1.22    0.00000     0.00  LINEAR    4.57999E-02    10.66    0.00000E+00     0.00
  -65.00   350.00       0.89 -999.99    0.89    0.00000     0.00  LINEAR    4.40731E-02    13.56    0.00000E+00     0.00
  -60.00   350.00       0.47 -999.99    0.47    0.00000     0.00  LINEAR    4.20040E-02    16.35    0.00000E+00     0.00
  -55.00   350.00      -0.04 -999.99   -0.04    0.00000     0.00  LINEAR    3.96156E-02    19.00    0.00000E+00     0.00
  -50.00   350.00      -0.65 -999.99   -0.65    0.00000     0.00  LINEAR    3.69329E-02    21.50    0.00000E+00     0.00
  -45.00   350.00      -1.37 -999.99   -1.37    0.00000     0.00  LINEAR    3.39828E-02    23.82    0.00000E+00     0.00
  -40.00   350.00      -2.23 -999.99   -2.23    0.00000     0.00  LINEAR    3.07932E-02    25.94    0.00000E+00     0.00
  -35.00   350.00      -3.24 -999.99   -3.24    0.00000     0.00  LINEAR    2.73927E-02    27.85    0.00000E+00     0.00
  -30.00   350.00      -4.46 -999.99   -4.46    0.00000     0.00  LINEAR    2.38095E-02    29.54    0.00000E+00     0.00
  -25.00   350.00      -5.94 -999.99   -5.94    0.00000     0.00  LINEAR    2.00718E-02    31.00    0.00000E+00     0.00
  -20.00   350.00      -7.80 -999.99   -7.80    0.00000     0.00  LINEAR    1.62070E-02    32.20    0.00000E+00     0.00
  -15.00   350.00     -10.24 -999.99  -10.24    0.00000     0.00  LINEAR    1.22419E-02    33.14    0.00000E+00     0.00
  -10.00   350.00     -13.72 -999.99  -13.72    0.00000     0.00  LINEAR    8.20221E-03    33.83    0.00000E+00     0.00
   -5.00   350.00     -19.71 -999.99  -19.71    0.00000     0.00  LINEAR    4.11335E-03    34.24    0.00000E+00     0.00
    0.00   350.00    -999.99 -999.99 -999.99    0.00000     0.00            0.00000E+00     0.00    0.00000E+00     0.00
 -180.00   355.00    -999.99 -999.99 -999.99    0.00000     0.00            4.81580E-13   142.32    0.00000E+00     0.00
 -175.00   355.00     -19.71 -999.99  -19.71    0.00000     0.00  LINEAR    4.11335E-03   -37.54    0.00000E+00     0.00
 -170.00   355.00     -13.72 -999.99  -13.72    0.00000     0.00  LINEAR    8.20221E-03   -37.13    0.00000E+00     0.00
 -165.00   355.00     -10.24 -999.99  -10.24    0.00000     0.00  LINEAR    1.22419E-02   -36.45    0.00000E+00     0.00
 -160.00   355.00      -7.80 -999.99   -7.80    0.00000     0.00  LINEAR    1.62070E-02   -35.50    0.00000E+00     0.00
 -155.00   355.00      -5.94 -999.99   -5.94    0.00000     0.00  LINEAR    2.00718E-02   -34.30    0.00000E+00     0.00
 -150.00   355.00      -4.46 -999.99   -4.46    0.00000     0.00  LINEAR    2.38095E-02   -32.85    0.00000E+00     0.00
 -145.00   355.00      -3.24 -999.99   -3.24    0.00000     0.00  LINEAR    2.73927E-02   -31.16    0.00000E+00     0.00
 -140.00   355.00      -2.23 -999.99   -2.23    0.00000     0.00  LINEAR    3.07932E-02   -29.25    0.00000E+00     0.00
 -135.00   355.00      -1.37 -999.99   -1.37    0.00000     0.00  LINEAR    3.39828E-02   -27.13    0.00000E+00     0.00
 -130.00   355.00      -0.65 -999.99   -0.65    0.00000     0.00  LINEAR    3.69329E-02   -24.81    0.00000E+00     0.00
 -125.00   355.00      -0.04 -999.99   -0.04    0.00000     0.00  LINEAR    3.96156E-02   -22.32    0.00000E+00     0.00
 -120.00   355.00       0.47 -999.99    0.47    0.00000     0.00  LINEAR    4.20040E-02   -19.67    0.00000E+00     0.00
 -115.00   355.00       0.89 -999.99    0.89    0.00000     0.00  LINEAR    4.40731E-02   -16.89    0.00000E+00     0.00
 -110.00   355.00       1.22 -999.99    1.22    0.00000     0.00  LINEAR    4.57999E-02   -13.98    0.00000E+00     0.00
 -105.00   355.00       1.48 -999.99    1.48    0.00000     0.00  LINEAR    4.71647E-02   -10.99    0.00000E+00     0.00
 -100.00   355.00       1.66 -999.99    1.66    0.00000     0.00  LINEAR    4.81516E-02    -7.92    0.00000E+00     0.00
  -95.00   355.00       1.76 -999.99    1.76    0.00000     0.00  LINEAR    4.87486E-02    -4.80    0.00000E+00     0.00
  -90.00   355.00       1.80 -999.99    1.80    0.00000     0.00  LINEAR    4.89484E-02    -1.66    0.00000E+00     0.00
  -85.00   355.00       1.76 -999.99    1.76    0.00000     0.00  LINEAR    4.87486E-02     1.48    0.00000E+00     0.00
  -80.00   355.00       1.66 -999.99    1.66    0.00000     0.00  LINEAR    4.81516E-02     4.59    0.00000E+00     0.00
  -75.00   355.00       1.48 -999.99    1.48    0.00000     0.00  LINEAR    4.71647E-02     7.66    0.00000E+00     0.00
  -70.00   355.00       1.22 -999.99    1.22    0.00000     0.00  LINEAR    4.57999E-02    10.66    0.00000E+00     0.00
  -65.00   355.00       0.89 -999.99    0.89    0.00000     0.00  LINEAR    4.40731E-02    13.56    0.00000E+00     0.00
  -60.00   355.00       0.47 -999.99    0.47    0.00000     0.00  LINEAR    4.20040E-02    16.35    0.00000E+00     0.00
  -55.00   355.00      -0.04 -999.99   -0.04    0.00000     0.00  LINEAR    3.96156E-02    19.00    0.00000E+00     0.00
  -50.00   355.00      -0.65 -999.99   -0.65    0.00000     0.00  LINEAR    3.69329E-02    21.50    0.00000E+00     0.00
  -45.00   355.00      -1.37 -999.99   -1.37    0.00000     0.00  LINEAR    3.39828E-02    23.82    0.00000E+00     0.00
  -40.00   355.00      -2.23 -999.99   -2.23    0.00000     0.00  LINEAR    3.07932E-02    25.94    0.00000E+00     0.00
  -35.00   355.00      -3.24 -999.99   -3.24    0.00000     0.00  LINEAR    2.73927E-02    27.85    0.00000E+00     0.00
  -30.00   355.00      -4.46 -999.99   -4.46    0.00000     0.00  LINEAR    2.38095E-02    29.54    0.00000E+00     0.00
  -25.00   355.00      -5.94 -999.99   -5.94    0.00000     0.00  LINEAR    2.00718E-02    31.00    0.00000E+00     0.00
  -20.00   355.00      -7.80 -999.99   -7.80    0.00000     0.00  LINEAR    1.62070E-02    32.20    0.00000E+00     0.00
  -15.00   355.00     -10.24 -999.99  -10.24    0.00000     0.00  LINEAR    1.22419E-02    33.14    0.00000E+00     0.00
  -10.00   355.00     -13.72 -999.99  -13.72    0.00000     0.00  LINEAR    8.20221E-03    33.83    0.00000E+00     0.00
   -5.00   355.00     -19.71 -999.99  -19.71    0.00000     0.00  LINEAR    4.11335E-03    34.24    0.00000E+00     0.00
    0.00   355.00    -999.99 -999.99 -999.99    0.00000     0.00            0.00000E+00     0.00    0.00000E+00     0.00
 -180.00   360.00    -999.99 -999.99 -999.99    0.00000     0.00            4.81580E-13   142.32    0.00000E+00     0.00
 -175.00   360.00     -19.71 -999.99  -19.71    0.00000     0.00  LINEAR    4.11335E-03   -37.54    0.00000E+00     0.00
 -170.00   360.00     -13.72 -999.99  -13.72    0.00000     0.00  LINEAR    8.20221E-03   -37.13    0.00000E+00     0.00
 -165.00   360.00     -10.24 -999.99  -10.24    0.00000     0.00  LINEAR    1.22419E-02   -36.45    0.00000E+00     0.00
 -160.00   360.00      -7.80 -999.99   -7.80    0.00000     0.00  LINEAR    1.62070E-02   -35.50    0.00000E+00     0.00
 -155.00   360.00      -5.94 -999.99   -5.94    0.00000     0.00  LINEAR    2.00718E-02   -34.30    0.00000E+00     0.00
 -150.00   360.00      -4.46 -999.99   -4.46    0.00000     0.00  LINEAR    2.38095E-02   -32.85    0.00000E+00     0.00
 -145.00   360.00      -3.24 -999.99   -3.24    0.00000     0.00  LINEAR    2.73927E-02   -31.16    0.00000E+00     0.00
 -140.00   360.00      -2.23 -999.99   -2.23    0.00000     0.00  LINEAR    3.07932E-02   -29.25    0.00000E+00     0.00
 -135.00   360.00      -1.37 -999.99   -1.37    0.00000     0.00  LINEAR    3.39828E-02   -27.13    0.00000E+00     0.00
 -130.00   360.00      -0.65 -999.99   -0.65    0.00000     0.00  LINEAR    3.69329E-02   -24.81    0.00000E+00     0.00
 -125.00   360.00      -0.04 -999.99   -0.04    0.00000     0.00  LINEAR    3.96156E-02   -22.32    0.00000E+00     0.00
 -120.00   360.00       0.47 -999.99    0.47    0.00000     0.00  LINEAR    4.20040E-02   -19.67    0.00000E+00     0.00
 -115.00   360.00       0.89 -999.99    0.89    0.00000     0.00  LINEAR    4.40731E-02   -16.89    0.00000E+00     0.00
 -110.00   360.00       1.22 -999.99    1.22    0.00000     0.00  LINEAR    4.57999E-02   -13.98    0.00000E+00     0.00
 -105.00   360.00       1.48 -999.99    1.48    0.00000     0.00  LINEAR    4.71647E-02   -10.99    0.00000E+00     0.00
 -100.00   360.00       1.66 -999.99    1.66    0.00000     0.00  LINEAR    4.81516E-02    -7.92    0.00000E+00     0.00
  -95.00   360.00       1.76 -999.99    1.76    0.00000     0.00  LINEAR    4.87486E-02    -4.80    0.00000E+00     0.00
  -90.00   360.00       1.80 -999.99    1.80    0.00000     0.00  LINEAR    4.89484E-02    -1.66    0.00000E+00     0.00
  -85.00   360.00       1.76 -999.99    1.76    0.00000     0.00  LINEAR    4.87486E-02     1.48    0.00000E+00     0.00
  -80.00   360.00       1.66 -999.99    1.66    0.00000     0.00  LINEAR    4.81516E-02     4.59    0.00000E+00     0.00
  -75.00   360.00       1.48 -999.99    1.48    0.00000     0.00  LINEAR    4.71647E-02     7.66    0.00000E+00     0.00
  -70.00   360.00       1.22 -999.99    1.22    0.00000     0.00  LINEAR    4.57999E-02    10.66    0.00000E+00     0.00
  -65.00   360.00       0.89 -999.99    0.89    0.00000     0.00  LINEAR    4.40731E-02    13.56    0.00000E+00     0.00
  -60.00   360.00       0.47 -999.99    0.47    0.00000     0.00  LINEAR    4.20040E-02    16.35    0.00000E+00     0.00
  -55.00   360.00      -0.04 -999.99   -0.04    0.00000     0.00  LINEAR    3.96156E-02    19.00    0.00000E+00     0.00
  -50.00   360.00      -0.65 -999.99   -0.65    0.00000     0.00  LINEAR    3.69329E-02    21.50    0.00000E+00     0.00
  -45.00   360.00      -1.37 -999.99   -1.37    0.00000     0.00  LINEAR    3.39828E-02    23.82    0.00000E+00     0.00
  -40.00   360.00      -2.23 -999.99   -2.23    0.00000     0.00  LINEAR    3.07932E-02    25.94    0.00000E+00     0.00
  -35.00   360.00      -3.24 -999.99   -3.24    0.00000     0.00  LINEAR    2.73927E-02    27.85    0.00000E+00     0.00
  -30.00   360.00      -4.46 -999.99   -4.46    0.00000     0.00  LINEAR    2.38095E-02    29.54    0.00000E+00     0.00
  -25.00   360.00      -5.94 -999.99   -5.94    0.00000     0.00  LINEAR    2.00718E-02    31.00    0.00000E+00     0.00
  -20.00   360.00      -7.80 -999.99   -7.80    0.00000     0.00  LINEAR    1.62070E-02    32.20    0.00000E+00     0.00
  -15.00   360.00     -10.24 -999.99  -10.24    0.00000     0.00  LINEAR    1.22419E-02    33.14    0.00000E+00     0.00
  -10.00   360.00     -13.72 -999.99  -13.72    0.00000     0.00  LINEAR    8.20221E-03    33.83    0.00000E+00     0.00
   -5.00   360.00     -19.71 -999.99  -19.71    0.00000     0.00  LINEAR    4.11335E-03    34.24    0.00000E+00     0.00
    0.00   360.00    -999.99 -999.99 -999.99    0.00000     0.00            0.00000E+00     0.00    0.00000E+00     0.00


   AVERAGE POWER GAIN= 9.93757E-01       SOLID ANGLE USED IN AVERAGING=( 4.0000)*PI STERADIANS.








 ***** DATA CARD NO.  5   EN   0    37    73  1003 -1.80000E+02  0.00000E+00  5.00000E+00  5.00000E+00  0.00000E+00  0.00000E+00

 RUN TIME =     0.031
