1



                                 *********************************************

                                    NUMERICAL ELECTROMAGNETICS CODE (NEC-2D)

                                 *********************************************




                                     - - - - COMMENTS - - - -


                                                                                                     




                                 - - - STRUCTURE SPECIFICATION - - -

                                     COORDINATES MUST BE INPUT IN
                                     METERS OR BE SCALED TO METERS
                                     BEFORE STRUCTURE INPUT IS ENDED


  WIRE                                                                               NO. OF    FIRST  LAST     TAG
  NO.        X1         Y1         Z1          X2         Y2         Z2      RADIUS   SEG.     SEG.   SEG.     NO.
     1    0.00000    0.00000    0.00000     0.60000    0.00000    0.00000    0.00100      7        1     7       1

   TOTAL SEGMENTS USED=    7     NO. SEG. IN A SYMMETRIC CELL=    7     SYMMETRY FLAG=  0


         - MULTIPLE WIRE JUNCTIONS -
 JUNCTION    SEGMENTS  (- FOR END 1, + FOR END 2)
  NONE




                                 - - - - SEGMENTATION DATA - - - -

                                        COORDINATES IN METERS

                         I+ AND I- INDICATE THE SEGMENTS BEFORE AND AFTER I


  SEG.   COORDINATES OF SEG. CENTER     SEG.     ORIENTATION ANGLES    WIRE    CONNECTION DATA   TAG
  NO.       X         Y         Z       LENGTH     ALPHA     BETA      RADIUS    I-   I    I+    NO.
     1   0.04286   0.00000   0.00000   0.08571    0.00000   0.00000   0.00100     0    1    2      1
     2   0.12857   0.00000   0.00000   0.08571    0.00000   0.00000   0.00100     1    2    3      1
     3   0.21429   0.00000   0.00000   0.08571    0.00000   0.00000   0.00100     2    3    4      1
     4   0.30000   0.00000   0.00000   0.08571    0.00000   0.00000   0.00100     3    4    5      1
     5   0.38571   0.00000   0.00000   0.08571    0.00000   0.00000   0.00100     4    5    6      1
     6   0.47143   0.00000   0.00000   0.08571    0.00000   0.00000   0.00100     5    6    7      1
     7   0.55714   0.00000   0.00000   0.08571    0.00000   0.00000   0.00100     6    7    0      1






 ***** DATA CARD NO.  1   EX   0     1     4     0  1.00000E+00  0.00000E+00  0.00000E+00  0.00000E+00  0.00000E+00  0.00000E+00
 ***** DATA CARD NO.  2   GN  -1     0     0     0  0.00000E+00  0.00000E+00  0.00000E+00  0.00000E+00  0.00000E+00  0.00000E+00
 ***** DATA CARD NO.  3   FR   0     1     0     0  2.40000E+03  0.00000E+00  0.00000E+00  0.00000E+00  0.00000E+00  0.00000E+00
 ***** DATA CARD NO.  4   RP   0    37    73  1003 -1.80000E+02  0.00000E+00  5.00000E+00  5.00000E+00  0.00000E+00  0.00000E+00




                                 - - - - - - FREQUENCY - - - - - -

                                    FREQUENCY= 2.4000E+03 MHZ
                                    WAVELENGTH= 1.2492E-01 METERS




                    APPROXIMATE INTEGRATION EMPLOYED FOR SEGMENTS MORE THAN   1.000 WAVELENGTHS APART



                               - - - STRUCTURE IMPEDANCE LOADING - - -

                                   THIS STRUCTURE IS NOT LOADED



                                  - - - ANTENNA ENVIRONMENT - - -

                                            FREE SPACE



                                - - - MATRIX TIMING - - -

                        FILL=    0.000 SEC.,  FACTOR=    0.000 SEC.



                                          - - - ANTENNA INPUT PARAMETERS - - -

   TAG   SEG.    VOLTAGE (VOLTS)         CURRENT (AMPS)         IMPEDANCE (OHMS)        ADMITTANCE (MHOS)      POWER
   NO.   NO.    REAL        IMAG.       REAL        IMAG.       REAL        IMAG.       REAL        IMAG.     (WATTS)
     1     4 1.00000E+00 0.00000E+00 1.05716E-03-1.74695E-03 2.53552E+02 4.18991E+02 1.05716E-03-1.74695E-03 5.28580E-04



                             - - - CURRENTS AND LOCATION - - -

                                 DISTANCES IN WAVELENGTHS


  SEG.  TAG    COORD. OF SEG. CENTER     SEG.            - - - CURRENT (AMPS) - - -
  NO.   NO.     X        Y        Z      LENGTH     REAL        IMAG.       MAG.        PHASE
     1    1   0.3431   0.0000   0.0000  0.68617   5.1459E-04 -6.3695E-04  8.1885E-04  -51.066
     2    1   1.0293   0.0000   0.0000  0.68617   5.5777E-05 -1.8671E-04  1.9486E-04  -73.367
     3    1   1.7154   0.0000   0.0000  0.68617  -4.7791E-04  7.4257E-04  8.8307E-04  122.765
     4    1   2.4016   0.0000   0.0000  0.68617   1.0572E-03 -1.7469E-03  2.0419E-03  -58.820
     5    1   3.0878   0.0000   0.0000  0.68617  -4.7791E-04  7.4257E-04  8.8307E-04  122.765
     6    1   3.7739   0.0000   0.0000  0.68617   5.5777E-05 -1.8671E-04  1.9486E-04  -73.367
     7    1   4.4601   0.0000   0.0000  0.68617   5.1459E-04 -6.3695E-04  8.1885E-04  -51.066



                                        - - - POWER BUDGET - - -

                                           INPUT POWER   = 5.2858E-04 WATTS
                                           RADIATED POWER= 5.2858E-04 WATTS
                                           STRUCTURE LOSS= 0.0000E+00 WATTS
                                           NETWORK LOSS  = 0.0000E+00 WATTS
                                           EFFICIENCY    = 100.00 PERCENT



                                                - - - RADIATION PATTERNS - - -

  - - ANGLES - -           - POWER GAINS -       - - - POLARIZATION - - -    - - - E(THETA) - - -    - - - E(PHI) - - -
  THETA     PHI        VERT.   HOR.    TOTAL      AXIAL     TILT   SENSE     MAGNITUDE    PHASE      MAGNITUDE    PHASE 
 DEGREES  DEGREES       DB      DB      DB        RATIO     DEG.              VOLTS/M    DEGREES      VOLTS/M    DEGREES
 -180.00     0.00       0.97 -999.99    0.97    0.00000     0.00  LINEAR    1.99147E-01    33.31    0.00000E+00     0.00
 -175.00     0.00      -1.20 -999.99   -1.20    0.00000     0.00  LINEAR    1.55135E-01   -45.49    0.00000E+00     0.00
 -170.00     0.00      -5.78 -999.99   -5.78    0.00000     0.00  LINEAR    9.15640E-02  -134.08    0.00000E+00     0.00
 -165.00     0.00      -4.97 -999.99   -4.97    0.00000     0.00  LINEAR    1.00430E-01   149.29    0.00000E+00     0.00
 -160.00     0.00      -0.72 -999.99   -0.72    0.00000     0.00  LINEAR    1.63877E-01    88.78    0.00000E+00     0.00
 -155.00     0.00       0.67 -999.99    0.67    0.00000     0.00  LINEAR    1.92202E-01    25.44    0.00000E+00     0.00
 -150.00     0.00      -2.18 -999.99   -2.18    0.00000     0.00  LINEAR    1.38485E-01   -38.35    0.00000E+00     0.00
 -145.00     0.00      -9.67 -999.99   -9.67    0.00000     0.00  LINEAR    5.84834E-02  -102.98    0.00000E+00     0.00
 -140.00     0.00     -14.39 -999.99  -14.39    0.00000     0.00  LINEAR    3.39507E-02  -176.91    0.00000E+00     0.00
 -135.00     0.00      -6.69 -999.99   -6.69    0.00000     0.00  LINEAR    8.23912E-02   131.66    0.00000E+00     0.00
 -130.00     0.00      -0.90 -999.99   -0.90    0.00000     0.00  LINEAR    1.60574E-01    85.57    0.00000E+00     0.00
 -125.00     0.00       1.69 -999.99    1.69    0.00000     0.00  LINEAR    2.16366E-01    42.20    0.00000E+00     0.00
 -120.00     0.00       2.07 -999.99    2.07    0.00000     0.00  LINEAR    2.25999E-01     3.31    0.00000E+00     0.00
 -115.00     0.00       0.87 -999.99    0.87    0.00000     0.00  LINEAR    1.96757E-01   -30.24    0.00000E+00     0.00
 -110.00     0.00      -1.55 -999.99   -1.55    0.00000     0.00  LINEAR    1.49003E-01   -57.97    0.00000E+00     0.00
 -105.00     0.00      -4.99 -999.99   -4.99    0.00000     0.00  LINEAR    1.00262E-01   -79.57    0.00000E+00     0.00
 -100.00     0.00      -9.56 -999.99   -9.56    0.00000     0.00  LINEAR    5.92532E-02   -94.93    0.00000E+00     0.00
  -95.00     0.00     -16.39 -999.99  -16.39    0.00000     0.00  LINEAR    2.69890E-02  -104.05    0.00000E+00     0.00
  -90.00     0.00    -999.99 -999.99 -999.99    0.00000     0.00            1.52386E-12  -107.07    0.00000E+00     0.00
  -85.00     0.00     -16.39 -999.99  -16.39    0.00000     0.00  LINEAR    2.69890E-02    75.95    0.00000E+00     0.00
  -80.00     0.00      -9.56 -999.99   -9.56    0.00000     0.00  LINEAR    5.92532E-02    85.07    0.00000E+00     0.00
  -75.00     0.00      -4.99 -999.99   -4.99    0.00000     0.00  LINEAR    1.00262E-01   100.43    0.00000E+00     0.00
  -70.00     0.00      -1.55 -999.99   -1.55    0.00000     0.00  LINEAR    1.49003E-01   122.03    0.00000E+00     0.00
  -65.00     0.00       0.87 -999.99    0.87    0.00000     0.00  LINEAR    1.96757E-01   149.76    0.00000E+00     0.00
  -60.00     0.00       2.07 -999.99    2.07    0.00000     0.00  LINEAR    2.25999E-01  -176.69    0.00000E+00     0.00
  -55.00     0.00       1.69 -999.99    1.69    0.00000     0.00  LINEAR    2.16366E-01  -137.80    0.00000E+00     0.00
  -50.00     0.00      -0.90 -999.99   -0.90    0.00000     0.00  LINEAR    1.60574E-01   -94.43    0.00000E+00     0.00
  -45.00     0.00      -6.69 -999.99   -6.69    0.00000     0.00  LINEAR    8.23912E-02   -48.34    0.00000E+00     0.00
  -40.00     0.00     -14.39 -999.99  -14.39    0.00000     0.00  LINEAR    3.39507E-02     3.09    0.00000E+00     0.00
  -35.00     0.00      -9.67 -999.99   -9.67    0.00000     0.00  LINEAR    5.84834E-02    77.02    0.00000E+00     0.00
  -30.00     0.00      -2.18 -999.99   -2.18    0.00000     0.00  LINEAR    1.38485E-01   141.65    0.00000E+00     0.00
  -25.00     0.00       0.67 -999.99    0.67    0.00000     0.00  LINEAR    1.92202E-01  -154.56    0.00000E+00     0.00
  -20.00     0.00      -0.72 -999.99   -0.72    0.00000     0.00  LINEAR    1.63877E-01   -91.22    0.00000E+00     0.00
  -15.00     0.00      -4.97 -999.99   -4.97    0.00000     0.00  LINEAR    1.00430E-01   -30.71    0.00000E+00     0.00
  -10.00     0.00      -5.78 -999.99   -5.78    0.00000     0.00  LINEAR    9.15640E-02    45.92    0.00000E+00     0.00
   -5.00     0.00      -1.20 -999.99   -1.20    0.00000     0.00  LINEAR    1.55135E-01   134.51    0.00000E+00     0.00
    0.00     0.00       0.97 -999.99    0.97    0.00000     0.00  LINEAR    1.99147E-01  -146.69    0.00000E+00     0.00
 -180.00     5.00       0.94  -20.22    0.97    0.00000     5.00  LINEAR    1.98389E-01    33.31    1.73568E-02    33.31
 -175.00     5.00      -1.21  -22.34   -1.18    0.00000     5.02  LINEAR    1.54823E-01   -45.17    1.35970E-02   -45.17
 -170.00     5.00      -5.78  -26.81   -5.75    0.00000     5.08  LINEAR    9.14652E-02  -133.39    8.12561E-03  -133.39
 -165.00     5.00      -5.06  -25.92   -5.02    0.00000     5.18  LINEAR    9.94765E-02   150.02    9.01008E-03   150.02
 -160.00     5.00      -0.81  -21.43   -0.77    0.00000     5.32  LINEAR    1.62185E-01    89.77    1.51000E-02    89.77
 -155.00     5.00       0.64  -19.67    0.68    0.00000     5.51  LINEAR    1.91584E-01    26.74    1.84942E-02    26.74
 -150.00     5.00      -2.10  -22.01   -2.05    0.00000     5.77  LINEAR    1.39828E-01   -36.76    1.41259E-02   -36.76
 -145.00     5.00      -9.43  -28.86   -9.39    0.00000     6.10  LINEAR    6.00830E-02  -100.89    6.41710E-03  -100.89
 -140.00     5.00     -14.59  -33.44  -14.53    0.00000     6.52  LINEAR    3.31919E-02  -174.50    3.79079E-03  -174.50
 -135.00     5.00      -7.10  -25.25   -7.03    0.00000     7.05  LINEAR    7.86491E-02   133.69    9.73107E-03   133.69
 -130.00     5.00      -1.19  -18.51   -1.11    0.00000     7.75  LINEAR    1.55273E-01    87.91    2.11339E-02    87.91
 -125.00     5.00       1.51  -14.83    1.61    0.00000     8.67  LINEAR    2.11737E-01    44.78    3.22966E-02    44.78
 -120.00     5.00       1.97  -13.17    2.10    0.00000     9.92  LINEAR    2.23450E-01     6.06    3.90988E-02     6.06
 -115.00     5.00       0.85  -12.83    1.04    0.00000    11.70  LINEAR    1.96408E-01   -27.37    4.06595E-02   -27.37
 -110.00     5.00      -1.48  -13.32   -1.21    0.00000    14.35  LINEAR    1.50128E-01   -55.01    3.84026E-02   -55.01
 -105.00     5.00      -4.84  -14.26   -4.37    0.00000    18.68  LINEAR    1.01930E-01   -76.56    3.44555E-02   -76.56
 -100.00     5.00      -9.34  -15.30   -8.36    0.00000    26.74  LINEAR    6.07262E-02   -91.90    3.05955E-02   -91.90
  -95.00     5.00     -16.12  -16.09  -13.09    0.00000    45.11  LINEAR    2.78221E-02  -101.03    2.79284E-02  -101.03
  -90.00     5.00    -999.99  -16.39  -16.39    0.00000    90.00  LINEAR    1.57433E-12  -104.05    2.69890E-02  -104.05
  -85.00     5.00     -16.12  -16.09  -13.09    0.00000   -45.11  LINEAR    2.78221E-02    78.97    2.79284E-02  -101.03
  -80.00     5.00      -9.34  -15.30   -8.36    0.00000   -26.74  LINEAR    6.07262E-02    88.10    3.05955E-02   -91.90
  -75.00     5.00      -4.84  -14.26   -4.37    0.00000   -18.68  LINEAR    1.01930E-01   103.44    3.44555E-02   -76.56
  -70.00     5.00      -1.48  -13.32   -1.21    0.00000   -14.35  LINEAR    1.50128E-01   124.99    3.84026E-02   -55.01
  -65.00     5.00       0.85  -12.83    1.04    0.00000   -11.70  LINEAR    1.96408E-01   152.63    4.06595E-02   -27.37
  -60.00     5.00       1.97  -13.17    2.10    0.00000    -9.92  LINEAR    2.23450E-01  -173.94    3.90988E-02     6.06
  -55.00     5.00       1.51  -14.83    1.61    0.00000    -8.67  LINEAR    2.11737E-01  -135.22    3.22966E-02    44.78
  -50.00     5.00      -1.19  -18.51   -1.11    0.00000    -7.75  LINEAR    1.55273E-01   -92.09    2.11339E-02    87.91
  -45.00     5.00      -7.10  -25.25   -7.03    0.00000    -7.05  LINEAR    7.86491E-02   -46.31    9.73107E-03   133.69
  -40.00     5.00     -14.59  -33.44  -14.53    0.00000    -6.52  LINEAR    3.31919E-02     5.50    3.79079E-03  -174.50
  -35.00     5.00      -9.43  -28.86   -9.39    0.00000    -6.10  LINEAR    6.00830E-02    79.11    6.41710E-03  -100.89
  -30.00     5.00      -2.10  -22.01   -2.05    0.00000    -5.77  LINEAR    1.39828E-01   143.24    1.41259E-02   -36.76
  -25.00     5.00       0.64  -19.67    0.68    0.00000    -5.51  LINEAR    1.91584E-01  -153.26    1.84942E-02    26.74
  -20.00     5.00      -0.81  -21.43   -0.77    0.00000    -5.32  LINEAR    1.62185E-01   -90.23    1.51000E-02    89.77
  -15.00     5.00      -5.06  -25.92   -5.02    0.00000    -5.18  LINEAR    9.94765E-02   -29.98    9.01008E-03   150.02
  -10.00     5.00      -5.78  -26.81   -5.75    0.00000    -5.08  LINEAR    9.14652E-02    46.61    8.12561E-03  -133.39
   -5.00     5.00      -1.21  -22.34   -1.18    0.00000    -5.02  LINEAR    1.54823E-01   134.83    1.35970E-02   -45.17
    0.00     5.00       0.94  -20.22    0.97    0.00000    -5.00  LINEAR    1.98389E-01  -146.69    1.73568E-02    33.31
 -180.00    10.00       0.84  -14.23    0.97    0.00000    10.00  LINEAR    1.96121E-01    33.31    3.45815E-02    33.31
 -175.00    10.00      -1.27  -16.31   -1.13    0.00000    10.04  LINEAR    1.53873E-01   -44.22    2.72357E-02   -44.22
 -170.00    10.00      -5.81  -20.75   -5.67    0.00000    10.15  LINEAR    9.11877E-02  -131.29    1.63269E-02  -131.29
 -165.00    10.00      -5.30  -20.07   -5.16    0.00000    10.35  LINEAR    9.67041E-02   152.20    1.76531E-02   152.20
 -160.00    10.00      -1.08  -15.62   -0.93    0.00000    10.63  LINEAR    1.57128E-01    92.70    2.94840E-02    92.70
 -155.00    10.00       0.54  -13.68    0.70    0.00000    11.01  LINEAR    1.89509E-01    30.63    3.68699E-02    30.63
 -150.00    10.00      -1.87  -15.69   -1.69    0.00000    11.51  LINEAR    1.43606E-01   -31.99    2.92389E-02   -31.99
 -145.00    10.00      -8.75  -22.09   -8.55    0.00000    12.15  LINEAR    6.50434E-02   -94.77    1.40010E-02   -94.77
 -140.00    10.00     -15.02  -27.78  -14.79    0.00000    12.96  LINEAR    3.15903E-02  -166.94    7.27140E-03  -166.94
 -135.00    10.00      -8.33  -20.39   -8.07    0.00000    14.00  LINEAR    6.82179E-02   139.74    1.70111E-02   139.74
 -130.00    10.00      -2.10  -13.34   -1.79    0.00000    15.34  LINEAR    1.39748E-01    94.89    3.83350E-02    94.89
 -125.00    10.00       0.90   -9.34    1.30    0.00000    17.09  LINEAR    1.97554E-01    52.46    6.07315E-02    52.46
 -120.00    10.00       1.64   -7.41    2.15    0.00000    19.43  LINEAR    2.14981E-01    14.26    7.58139E-02    14.26
 -115.00    10.00       0.76   -6.83    1.46    0.00000    22.65  LINEAR    1.94342E-01   -18.77    8.10842E-02   -18.77
 -110.00    10.00      -1.34   -7.09   -0.32    0.00000    27.27  LINEAR    1.52580E-01   -46.13    7.86618E-02   -46.13
 -105.00    10.00      -4.48   -7.82   -2.83    0.00000    34.27  LINEAR    1.06257E-01   -67.52    7.23905E-02   -67.52
 -100.00    10.00      -8.79   -8.65   -5.71    0.00000    45.44  LINEAR    6.47290E-02   -82.78    6.57276E-02   -82.78
  -95.00    10.00     -15.43   -9.31   -8.36    0.00000    63.70  LINEAR    3.01307E-02   -91.90    6.09581E-02   -91.90
  -90.00    10.00    -999.99   -9.56   -9.56    0.00000    90.00  LINEAR    1.71496E-12   -94.93    5.92532E-02   -94.93
  -85.00    10.00     -15.43   -9.31   -8.36    0.00000   -63.70  LINEAR    3.01307E-02    88.10    6.09581E-02   -91.90
  -80.00    10.00      -8.79   -8.65   -5.71    0.00000   -45.44  LINEAR    6.47290E-02    97.22    6.57276E-02   -82.78
  -75.00    10.00      -4.48   -7.82   -2.83    0.00000   -34.27  LINEAR    1.06257E-01   112.48    7.23905E-02   -67.52
  -70.00    10.00      -1.34   -7.09   -0.32    0.00000   -27.27  LINEAR    1.52580E-01   133.87    7.86618E-02   -46.13
  -65.00    10.00       0.76   -6.83    1.46    0.00000   -22.65  LINEAR    1.94342E-01   161.23    8.10842E-02   -18.77
  -60.00    10.00       1.64   -7.41    2.15    0.00000   -19.43  LINEAR    2.14981E-01  -165.74    7.58139E-02    14.26
  -55.00    10.00       0.90   -9.34    1.30    0.00000   -17.09  LINEAR    1.97554E-01  -127.54    6.07315E-02    52.46
  -50.00    10.00      -2.10  -13.34   -1.79    0.00000   -15.34  LINEAR    1.39748E-01   -85.11    3.83350E-02    94.89
  -45.00    10.00      -8.33  -20.39   -8.07    0.00000   -14.00  LINEAR    6.82179E-02   -40.26    1.70111E-02   139.74
  -40.00    10.00     -15.02  -27.78  -14.79    0.00000   -12.96  LINEAR    3.15903E-02    13.06    7.27140E-03  -166.94
  -35.00    10.00      -8.75  -22.09   -8.55    0.00000   -12.15  LINEAR    6.50434E-02    85.23    1.40010E-02   -94.77
  -30.00    10.00      -1.87  -15.69   -1.69    0.00000   -11.51  LINEAR    1.43606E-01   148.01    2.92389E-02   -31.99
  -25.00    10.00       0.54  -13.68    0.70    0.00000   -11.01  LINEAR    1.89509E-01  -149.37    3.68699E-02    30.63
  -20.00    10.00      -1.08  -15.62   -0.93    0.00000   -10.63  LINEAR    1.57128E-01   -87.30    2.94840E-02    92.70
  -15.00    10.00      -5.30  -20.07   -5.16    0.00000   -10.35  LINEAR    9.67041E-02   -27.80    1.76531E-02   152.20
  -10.00    10.00      -5.81  -20.75   -5.67    0.00000   -10.15  LINEAR    9.11877E-02    48.71    1.63269E-02  -131.29
   -5.00    10.00      -1.27  -16.31   -1.13    0.00000   -10.04  LINEAR    1.53873E-01   135.78    2.72357E-02   -44.22
    0.00    10.00       0.84  -14.23    0.97    0.00000   -10.00  LINEAR    1.96121E-01  -146.69    3.45815E-02    33.31
 -180.00    15.00       0.67  -10.77    0.97    0.00000    15.00  LINEAR    1.92361E-01    33.31    5.15430E-02    33.31
 -175.00    15.00      -1.36  -12.76   -1.06    0.00000    15.05  LINEAR    1.52250E-01   -42.66    4.09511E-02   -42.66
 -170.00    15.00      -5.85  -17.16   -5.54    0.00000    15.22  LINEAR    9.07832E-02  -127.80    2.47005E-02  -127.80
 -165.00    15.00      -5.70  -16.84   -5.38    0.00000    15.50  LINEAR    9.23704E-02   155.87    2.56237E-02   155.87
 -160.00    15.00      -1.56  -12.46   -1.22    0.00000    15.92  LINEAR    1.48790E-01    97.52    4.24268E-02    97.52
 -155.00    15.00       0.35  -10.23    0.71    0.00000    16.47  LINEAR    1.85350E-01    37.05    5.47985E-02    37.05
 -150.00    15.00      -1.54  -11.73   -1.15    0.00000    17.19  LINEAR    1.49017E-01   -24.12    4.61061E-02   -24.12
 -145.00    15.00      -7.66  -17.37   -7.22    0.00000    18.11  LINEAR    7.36751E-02   -84.89    2.40995E-02   -84.89
 -140.00    15.00     -15.17  -24.29  -14.67    0.00000    19.28  LINEAR    3.10512E-02  -153.52    1.08612E-02  -153.52
 -135.00    15.00     -10.44  -18.87   -9.86    0.00000    20.75  LINEAR    5.35061E-02   149.73    2.02755E-02   149.73
 -130.00    15.00      -3.76  -11.36   -3.07    0.00000    22.63  LINEAR    1.15414E-01   106.35    4.81108E-02   106.35
 -125.00    15.00      -0.23   -6.84    0.63    0.00000    25.04  LINEAR    1.73353E-01    65.13    8.09826E-02    65.13
 -120.00    15.00       0.95   -4.47    2.04    0.00000    28.19  LINEAR    1.98496E-01    27.84    1.06373E-01    27.84
 -115.00    15.00       0.46   -3.50    1.93    0.00000    32.38  LINEAR    1.87723E-01    -4.51    1.19020E-01    -4.51
 -110.00    15.00      -1.28   -3.40    0.80    0.00000    38.08  LINEAR    1.53647E-01   -31.37    1.20372E-01   -31.37
 -105.00    15.00      -4.09   -3.79   -0.93    0.00000    45.99  LINEAR    1.11149E-01   -52.43    1.15070E-01   -52.43
 -100.00    15.00      -8.12   -4.35   -2.83    0.00000    57.05  LINEAR    6.99238E-02   -67.52    1.07896E-01   -67.52
  -95.00    15.00     -14.57   -4.81   -4.37    0.00000    71.98  LINEAR    3.32815E-02   -76.56    1.02320E-01   -76.56
  -90.00    15.00    -999.99   -4.99   -4.99    0.00000    90.00  LINEAR    1.90961E-12   -79.57    1.00262E-01   -79.57
  -85.00    15.00     -14.57   -4.81   -4.37    0.00000   -71.98  LINEAR    3.32815E-02   103.44    1.02320E-01   -76.56
  -80.00    15.00      -8.12   -4.35   -2.83    0.00000   -57.05  LINEAR    6.99238E-02   112.48    1.07896E-01   -67.52
  -75.00    15.00      -4.09   -3.79   -0.93    0.00000   -45.99  LINEAR    1.11149E-01   127.57    1.15070E-01   -52.43
  -70.00    15.00      -1.28   -3.40    0.80    0.00000   -38.08  LINEAR    1.53647E-01   148.63    1.20372E-01   -31.37
  -65.00    15.00       0.46   -3.50    1.93    0.00000   -32.38  LINEAR    1.87723E-01   175.49    1.19020E-01    -4.51
  -60.00    15.00       0.95   -4.47    2.04    0.00000   -28.19  LINEAR    1.98496E-01  -152.16    1.06373E-01    27.84
  -55.00    15.00      -0.23   -6.84    0.63    0.00000   -25.04  LINEAR    1.73353E-01  -114.87    8.09826E-02    65.13
  -50.00    15.00      -3.76  -11.36   -3.07    0.00000   -22.63  LINEAR    1.15414E-01   -73.65    4.81108E-02   106.35
  -45.00    15.00     -10.44  -18.87   -9.86    0.00000   -20.75  LINEAR    5.35061E-02   -30.27    2.02755E-02   149.73
  -40.00    15.00     -15.17  -24.29  -14.67    0.00000   -19.28  LINEAR    3.10512E-02    26.48    1.08612E-02  -153.52
  -35.00    15.00      -7.66  -17.37   -7.22    0.00000   -18.11  LINEAR    7.36751E-02    95.11    2.40995E-02   -84.89
  -30.00    15.00      -1.54  -11.73   -1.15    0.00000   -17.19  LINEAR    1.49017E-01   155.88    4.61061E-02   -24.12
  -25.00    15.00       0.35  -10.23    0.71    0.00000   -16.47  LINEAR    1.85350E-01  -142.95    5.47985E-02    37.05
  -20.00    15.00      -1.56  -12.46   -1.22    0.00000   -15.92  LINEAR    1.48790E-01   -82.48    4.24268E-02    97.52
  -15.00    15.00      -5.70  -16.84   -5.38    0.00000   -15.50  LINEAR    9.23704E-02   -24.13    2.56237E-02   155.87
  -10.00    15.00      -5.85  -17.16   -5.54    0.00000   -15.22  LINEAR    9.07832E-02    52.20    2.47005E-02  -127.80
   -5.00    15.00      -1.36  -12.76   -1.06    0.00000   -15.05  LINEAR    1.52250E-01   137.34    4.09511E-02   -42.66
    0.00    15.00       0.67  -10.77    0.97    0.00000   -15.00  LINEAR    1.92361E-01  -146.69    5.15430E-02    33.31
 -180.00    20.00       0.43   -8.35    0.97    0.00000    20.00  LINEAR    1.87137E-01    33.31    6.81122E-02    33.31
 -175.00    20.00      -1.49  -10.24   -0.95    0.00000    20.07  LINEAR    1.49892E-01   -40.49    5.47648E-02   -40.49
 -170.00    20.00      -5.89  -14.54   -5.34    0.00000    20.28  LINEAR    9.03205E-02  -122.95    3.33811E-02  -122.95
 -165.00    20.00      -6.23  -14.71   -5.65    0.00000    20.65  LINEAR    8.68864E-02   161.09    3.27396E-02   161.09
 -160.00    20.00      -2.25  -10.49   -1.64    0.00000    21.17  LINEAR    1.37403E-01   104.16    5.32203E-02   104.16
 -155.00    20.00       0.01   -7.91    0.66    0.00000    21.88  LINEAR    1.78218E-01    45.92    7.15719E-02    45.92
 -150.00    20.00      -1.22   -8.75   -0.52    0.00000    22.80  LINEAR    1.54624E-01   -13.24    6.49850E-02   -13.24
 -145.00    20.00      -6.32  -13.37   -5.54    0.00000    23.96  LINEAR    8.59590E-02   -71.59    3.81938E-02   -71.59
 -140.00    20.00     -14.31  -20.78  -13.43    0.00000    25.41  LINEAR    3.42650E-02  -134.43    1.62803E-02  -134.43
 -135.00    20.00     -13.31  -19.08  -12.29    0.00000    27.24  LINEAR    3.84519E-02   164.02    1.97924E-02   164.02
 -130.00    20.00      -6.38  -11.32   -5.17    0.00000    29.52  LINEAR    8.54093E-02   121.96    4.83619E-02   121.96
 -125.00    20.00      -2.11   -6.06   -0.64    0.00000    32.40  LINEAR    1.39676E-01    82.59    8.86332E-02    82.59
 -120.00    20.00      -0.31   -3.07    1.54    0.00000    36.05  LINEAR    1.71816E-01    46.62    1.25071E-01    46.62
 -115.00    20.00      -0.26   -1.56    2.15    0.00000    40.74  LINEAR    1.72722E-01    15.27    1.48753E-01    15.27
 -110.00    20.00      -1.54   -0.99    1.75    0.00000    46.78  LINEAR    1.49186E-01   -10.84    1.58760E-01   -10.84
 -105.00    20.00      -3.94   -0.98    0.80    0.00000    54.58  LINEAR    1.13112E-01   -31.37    1.59067E-01   -31.37
 -100.00    20.00      -7.63   -1.21   -0.32    0.00000    64.49  LINEAR    7.39179E-02   -46.13    1.54933E-01   -46.13
  -95.00    20.00     -13.86   -1.45   -1.21    0.00000    76.53  LINEAR    3.60867E-02   -55.01    1.50701E-01   -55.01
  -90.00    20.00    -999.99   -1.55   -1.55    0.00000    90.00  LINEAR    2.08925E-12   -57.97    1.49003E-01   -57.97
  -85.00    20.00     -13.86   -1.45   -1.21    0.00000   -76.53  LINEAR    3.60867E-02   124.99    1.50701E-01   -55.01
  -80.00    20.00      -7.63   -1.21   -0.32    0.00000   -64.49  LINEAR    7.39179E-02   133.87    1.54933E-01   -46.13
  -75.00    20.00      -3.94   -0.98    0.80    0.00000   -54.58  LINEAR    1.13112E-01   148.63    1.59067E-01   -31.37
  -70.00    20.00      -1.54   -0.99    1.75    0.00000   -46.78  LINEAR    1.49186E-01   169.16    1.58760E-01   -10.84
  -65.00    20.00      -0.26   -1.56    2.15    0.00000   -40.74  LINEAR    1.72722E-01  -164.73    1.48753E-01    15.27
  -60.00    20.00      -0.31   -3.07    1.54    0.00000   -36.05  LINEAR    1.71816E-01  -133.38    1.25071E-01    46.62
  -55.00    20.00      -2.11   -6.06   -0.64    0.00000   -32.40  LINEAR    1.39676E-01   -97.41    8.86332E-02    82.59
  -50.00    20.00      -6.38  -11.32   -5.17    0.00000   -29.52  LINEAR    8.54093E-02   -58.04    4.83619E-02   121.96
  -45.00    20.00     -13.31  -19.08  -12.29    0.00000   -27.24  LINEAR    3.84519E-02   -15.98    1.97924E-02   164.02
  -40.00    20.00     -14.31  -20.78  -13.43    0.00000   -25.41  LINEAR    3.42650E-02    45.57    1.62803E-02  -134.43
  -35.00    20.00      -6.32  -13.37   -5.54    0.00000   -23.96  LINEAR    8.59590E-02   108.41    3.81938E-02   -71.59
  -30.00    20.00      -1.22   -8.75   -0.52    0.00000   -22.80  LINEAR    1.54624E-01   166.76    6.49850E-02   -13.24
  -25.00    20.00       0.01   -7.91    0.66    0.00000   -21.88  LINEAR    1.78218E-01  -134.08    7.15719E-02    45.92
  -20.00    20.00      -2.25  -10.49   -1.64    0.00000   -21.17  LINEAR    1.37403E-01   -75.84    5.32203E-02   104.16
  -15.00    20.00      -6.23  -14.71   -5.65    0.00000   -20.65  LINEAR    8.68864E-02   -18.91    3.27396E-02   161.09
  -10.00    20.00      -5.89  -14.54   -5.34    0.00000   -20.28  LINEAR    9.03205E-02    57.05    3.33811E-02  -122.95
   -5.00    20.00      -1.49  -10.24   -0.95    0.00000   -20.07  LINEAR    1.49892E-01   139.51    5.47648E-02   -40.49
    0.00    20.00       0.43   -8.35    0.97    0.00000   -20.00  LINEAR    1.87137E-01  -146.69    6.81122E-02    33.31
 -180.00    25.00       0.12   -6.51    0.97    0.00000    25.00  LINEAR    1.80488E-01    33.31    8.41630E-02    33.31
 -175.00    25.00      -1.68   -8.27   -0.82    0.00000    25.08  LINEAR    1.46720E-01   -37.74    6.86780E-02   -37.74
 -170.00    25.00      -5.94  -12.43   -5.06    0.00000    25.34  LINEAR    8.98610E-02  -116.77    4.25493E-02  -116.77
 -165.00    25.00      -6.86  -13.19   -5.95    0.00000    25.77  LINEAR    8.07819E-02   167.96    3.89981E-02   167.96
 -160.00    25.00      -3.18   -9.27   -2.22    0.00000    26.39  LINEAR    1.23457E-01   112.50    6.12636E-02   112.50
 -155.00    25.00      -0.54   -6.32    0.48    0.00000    27.23  LINEAR    1.67214E-01    57.10    8.60339E-02    57.10
 -150.00    25.00      -1.02   -6.39    0.09    0.00000    28.30  LINEAR    1.58345E-01     0.53    8.52603E-02     0.53
 -145.00    25.00      -4.93   -9.82   -3.71    0.00000    29.65  LINEAR    1.00911E-01   -55.11    5.74445E-02   -55.11
 -140.00    25.00     -12.21  -16.53  -10.84    0.00000    31.33  LINEAR    4.36326E-02  -111.77    2.65601E-02  -111.77
 -135.00    25.00     -16.07  -19.69  -14.51    0.00000    33.40  LINEAR    2.79774E-02  -175.01    1.84499E-02  -175.01
 -130.00    25.00     -10.18  -12.97   -8.35    0.00000    35.96  LINEAR    5.51272E-02   141.30    3.99918E-02   141.30
 -125.00    25.00      -5.04   -6.84   -2.84    0.00000    39.11  LINEAR    9.96459E-02   104.41    8.10104E-02   104.41
 -120.00    25.00      -2.42   -3.03    0.29    0.00000    43.00  LINEAR    1.34668E-01    70.32    1.25593E-01    70.32
 -115.00    25.00      -1.71   -0.85    1.75    0.00000    47.81  LINEAR    1.46280E-01    40.35    1.61402E-01    40.35
 -110.00    25.00      -2.41    0.28    2.15    0.00000    53.74  LINEAR    1.34816E-01    15.27    1.83807E-01    15.27
 -105.00    25.00      -4.35    0.76    1.93    0.00000    60.97  LINEAR    1.07869E-01    -4.51    1.94345E-01    -4.51
 -100.00    25.00      -7.69    0.89    1.46    0.00000    69.58  LINEAR    7.34873E-02   -18.77    1.97340E-01   -18.77
  -95.00    25.00     -13.68    0.89    1.04    0.00000    79.41  LINEAR    3.68501E-02   -27.37    1.97158E-01   -27.37
  -90.00    25.00    -999.99    0.87    0.87    0.00000    90.00  LINEAR    2.15337E-12   -30.24    1.96757E-01   -30.24
  -85.00    25.00     -13.68    0.89    1.04    0.00000   -79.41  LINEAR    3.68501E-02   152.63    1.97158E-01   -27.37
  -80.00    25.00      -7.69    0.89    1.46    0.00000   -69.58  LINEAR    7.34873E-02   161.23    1.97340E-01   -18.77
  -75.00    25.00      -4.35    0.76    1.93    0.00000   -60.97  LINEAR    1.07869E-01   175.49    1.94345E-01    -4.51
  -70.00    25.00      -2.41    0.28    2.15    0.00000   -53.74  LINEAR    1.34816E-01  -164.73    1.83807E-01    15.27
  -65.00    25.00      -1.71   -0.85    1.75    0.00000   -47.81  LINEAR    1.46280E-01  -139.65    1.61402E-01    40.35
  -60.00    25.00      -2.42   -3.03    0.29    0.00000   -43.00  LINEAR    1.34668E-01  -109.68    1.25593E-01    70.32
  -55.00    25.00      -5.04   -6.84   -2.84    0.00000   -39.11  LINEAR    9.96459E-02   -75.59    8.10104E-02   104.41
  -50.00    25.00     -10.18  -12.97   -8.35    0.00000   -35.96  LINEAR    5.51272E-02   -38.70    3.99918E-02   141.30
  -45.00    25.00     -16.07  -19.69  -14.51    0.00000   -33.40  LINEAR    2.79774E-02     4.99    1.84499E-02  -175.01
  -40.00    25.00     -12.21  -16.53  -10.84    0.00000   -31.33  LINEAR    4.36326E-02    68.23    2.65601E-02  -111.77
  -35.00    25.00      -4.93   -9.82   -3.71    0.00000   -29.65  LINEAR    1.00911E-01   124.89    5.74445E-02   -55.11
  -30.00    25.00      -1.02   -6.39    0.09    0.00000   -28.30  LINEAR    1.58345E-01  -179.47    8.52603E-02     0.53
  -25.00    25.00      -0.54   -6.32    0.48    0.00000   -27.23  LINEAR    1.67214E-01  -122.90    8.60339E-02    57.10
  -20.00    25.00      -3.18   -9.27   -2.22    0.00000   -26.39  LINEAR    1.23457E-01   -67.50    6.12636E-02   112.50
  -15.00    25.00      -6.86  -13.19   -5.95    0.00000   -25.77  LINEAR    8.07819E-02   -12.04    3.89981E-02   167.96
  -10.00    25.00      -5.94  -12.43   -5.06    0.00000   -25.34  LINEAR    8.98610E-02    63.23    4.25493E-02  -116.77
   -5.00    25.00      -1.68   -8.27   -0.82    0.00000   -25.08  LINEAR    1.46720E-01   142.26    6.86780E-02   -37.74
    0.00    25.00       0.12   -6.51    0.97    0.00000   -25.00  LINEAR    1.80488E-01  -146.69    8.41630E-02    33.31
 -180.00    30.00      -0.28   -5.05    0.97    0.00000    30.00  LINEAR    1.72466E-01    33.31    9.95734E-02    33.31
 -175.00    30.00      -1.93   -6.66   -0.67    0.00000    30.09  LINEAR    1.42635E-01   -34.44    8.26649E-02   -34.44
 -170.00    30.00      -5.98  -10.62   -4.70    0.00000    30.38  LINEAR    8.94263E-02  -109.33    5.24268E-02  -109.33
 -165.00    30.00      -7.55  -12.02   -6.22    0.00000    30.87  LINEAR    7.46512E-02   176.67    4.46203E-02   176.67
 -160.00    30.00      -4.36   -8.59   -2.97    0.00000    31.57  LINEAR    1.07787E-01   122.43    6.62250E-02   122.43
 -155.00    30.00      -1.39   -5.30    0.09    0.00000    32.50  LINEAR    1.51785E-01    70.42    9.66924E-02    70.42
 -150.00    30.00      -1.05   -4.58    0.54    0.00000    33.69  LINEAR    1.57683E-01    17.00    1.05122E-01    17.00
 -145.00    30.00      -3.72   -6.75   -1.96    0.00000    35.18  LINEAR    1.16069E-01   -35.61    8.18071E-02   -35.61
 -140.00    30.00      -9.49  -11.95   -7.54    0.00000    37.00  LINEAR    5.96984E-02   -87.27    4.49933E-02   -87.27
 -135.00    30.00     -16.39  -18.15  -14.17    0.00000    39.23  LINEAR    2.69686E-02  -143.83    2.20198E-02  -143.83
 -130.00    30.00     -14.99  -15.92  -12.42    0.00000    41.93  LINEAR    3.17050E-02   164.87    2.84774E-02   164.87
 -125.00    30.00      -9.45   -9.39   -6.41    0.00000    45.19  LINEAR    6.00002E-02   129.92    6.03950E-02   129.92
 -120.00    30.00      -5.84   -4.59   -2.16    0.00000    49.11  LINEAR    9.09127E-02    98.40    1.04977E-01    98.40
 -115.00    30.00      -4.28   -1.57    0.29    0.00000    53.80  LINEAR    1.08767E-01    70.32    1.48590E-01    70.32
 -110.00    30.00      -4.32    0.23    1.54    0.00000    59.36  LINEAR    1.08315E-01    46.62    1.82842E-01    46.62
 -105.00    30.00      -5.72    1.25    2.04    0.00000    65.85  LINEAR    9.21221E-02    27.84    2.05498E-01    27.84
 -100.00    30.00      -8.66    1.77    2.15    0.00000    73.26  LINEAR    6.56568E-02    14.26    2.18297E-01    14.26
  -95.00    30.00     -14.42    2.01    2.10    0.00000    81.42  LINEAR    3.38605E-02     6.06    2.24304E-01     6.06
  -90.00    30.00    -999.99    2.07    2.07    0.00000    90.00  LINEAR    1.99769E-12     3.31    2.25999E-01     3.31
  -85.00    30.00     -14.42    2.01    2.10    0.00000   -81.42  LINEAR    3.38605E-02  -173.94    2.24304E-01     6.06
  -80.00    30.00      -8.66    1.77    2.15    0.00000   -73.26  LINEAR    6.56568E-02  -165.74    2.18297E-01    14.26
  -75.00    30.00      -5.72    1.25    2.04    0.00000   -65.85  LINEAR    9.21221E-02  -152.16    2.05498E-01    27.84
  -70.00    30.00      -4.32    0.23    1.54    0.00000   -59.36  LINEAR    1.08315E-01  -133.38    1.82842E-01    46.62
  -65.00    30.00      -4.28   -1.57    0.29    0.00000   -53.80  LINEAR    1.08767E-01  -109.68    1.48590E-01    70.32
  -60.00    30.00      -5.84   -4.59   -2.16    0.00000   -49.11  LINEAR    9.09127E-02   -81.60    1.04977E-01    98.40
  -55.00    30.00      -9.45   -9.39   -6.41    0.00000   -45.19  LINEAR    6.00002E-02   -50.08    6.03950E-02   129.92
  -50.00    30.00     -14.99  -15.92  -12.42    0.00000   -41.93  LINEAR    3.17050E-02   -15.13    2.84774E-02   164.87
  -45.00    30.00     -16.39  -18.15  -14.17    0.00000   -39.23  LINEAR    2.69686E-02    36.17    2.20198E-02  -143.83
  -40.00    30.00      -9.49  -11.95   -7.54    0.00000   -37.00  LINEAR    5.96984E-02    92.73    4.49933E-02   -87.27
  -35.00    30.00      -3.72   -6.75   -1.96    0.00000   -35.18  LINEAR    1.16069E-01   144.39    8.18071E-02   -35.61
  -30.00    30.00      -1.05   -4.58    0.54    0.00000   -33.69  LINEAR    1.57683E-01  -163.00    1.05122E-01    17.00
  -25.00    30.00      -1.39   -5.30    0.09    0.00000   -32.50  LINEAR    1.51785E-01  -109.58    9.66924E-02    70.42
  -20.00    30.00      -4.36   -8.59   -2.97    0.00000   -31.57  LINEAR    1.07787E-01   -57.57    6.62250E-02   122.43
  -15.00    30.00      -7.55  -12.02   -6.22    0.00000   -30.87  LINEAR    7.46512E-02    -3.33    4.46203E-02   176.67
  -10.00    30.00      -5.98  -10.62   -4.70    0.00000   -30.38  LINEAR    8.94263E-02    70.67    5.24268E-02  -109.33
   -5.00    30.00      -1.93   -6.66   -0.67    0.00000   -30.09  LINEAR    1.42635E-01   145.56    8.26649E-02   -34.44
    0.00    30.00      -0.28   -5.05    0.97    0.00000   -30.00  LINEAR    1.72466E-01  -146.69    9.95734E-02    33.31
 -180.00    35.00      -0.76   -3.85    0.97    0.00000    35.00  LINEAR    1.63131E-01    33.31    1.14226E-01    33.31
 -175.00    35.00      -2.24   -5.30   -0.50    0.00000    35.10  LINEAR    1.37527E-01   -30.62    9.66656E-02   -30.62
 -170.00    35.00      -6.03   -8.99   -4.25    0.00000    35.41  LINEAR    8.89633E-02  -100.73    6.32537E-02  -100.73
 -165.00    35.00      -8.22  -11.02   -6.39    0.00000    35.94  LINEAR    6.90811E-02  -172.52    5.00775E-02  -172.52
 -160.00    35.00      -5.77   -8.33   -3.86    0.00000    36.69  LINEAR    9.15862E-02   133.88    6.82450E-02   133.88
 -155.00    35.00      -2.59   -4.83   -0.56    0.00000    37.69  LINEAR    1.32138E-01    85.63    1.02089E-01    85.63
 -150.00    35.00      -1.47   -3.32    0.72    0.00000    38.96  LINEAR    1.50322E-01    35.96    1.21540E-01    35.96
 -145.00    35.00      -2.90   -4.26   -0.52    0.00000    40.52  LINEAR    1.27494E-01   -13.24    1.08982E-01   -13.24
 -140.00    35.00      -6.95   -7.73   -4.31    0.00000    42.43  LINEAR    7.99817E-02   -60.84    7.31078E-02   -60.84
 -135.00    35.00     -13.38  -13.46  -10.41    0.00000    44.72  LINEAR    3.81660E-02  -108.46    3.77936E-02  -108.46
 -130.00    35.00     -18.22  -17.48  -14.82    0.00000    47.45  LINEAR    2.18459E-02  -160.95    2.37973E-02  -160.95
 -125.00    35.00     -15.42  -13.69  -11.46    0.00000    50.68  LINEAR    3.01488E-02   158.86    3.68049E-02   158.86
 -120.00    35.00     -11.12   -8.20   -6.41    0.00000    54.47  LINEAR    4.94727E-02   129.92    6.92823E-02   129.92
 -115.00    35.00      -8.57   -4.19   -2.84    0.00000    58.89  LINEAR    6.63598E-02   104.41    1.09947E-01   104.41
 -110.00    35.00      -7.79   -1.57   -0.64    0.00000    63.97  LINEAR    7.26041E-02    82.59    1.48640E-01    82.59
 -105.00    35.00      -8.57    0.07    0.63    0.00000    69.71  LINEAR    6.63370E-02    65.13    1.79468E-01    65.13
 -100.00    35.00     -11.07    1.04    1.30    0.00000    76.07  LINEAR    4.97483E-02    52.46    2.00602E-01    52.46
  -95.00    35.00     -16.56    1.54    1.61    0.00000    82.90  LINEAR    2.64558E-02    44.78    2.12546E-01    44.78
  -90.00    35.00    -999.99    1.69    1.69    0.00000    90.00  LINEAR    1.57697E-12    42.20    2.16366E-01    42.20
  -85.00    35.00     -16.56    1.54    1.61    0.00000   -82.90  LINEAR    2.64558E-02  -135.22    2.12546E-01    44.78
  -80.00    35.00     -11.07    1.04    1.30    0.00000   -76.07  LINEAR    4.97483E-02  -127.54    2.00602E-01    52.46
  -75.00    35.00      -8.57    0.07    0.63    0.00000   -69.71  LINEAR    6.63370E-02  -114.87    1.79468E-01    65.13
  -70.00    35.00      -7.79   -1.57   -0.64    0.00000   -63.97  LINEAR    7.26041E-02   -97.41    1.48640E-01    82.59
  -65.00    35.00      -8.57   -4.19   -2.84    0.00000   -58.89  LINEAR    6.63598E-02   -75.59    1.09947E-01   104.41
  -60.00    35.00     -11.12   -8.20   -6.41    0.00000   -54.47  LINEAR    4.94727E-02   -50.08    6.92823E-02   129.92
  -55.00    35.00     -15.42  -13.69  -11.46    0.00000   -50.68  LINEAR    3.01488E-02   -21.14    3.68049E-02   158.86
  -50.00    35.00     -18.22  -17.48  -14.82    0.00000   -47.45  LINEAR    2.18459E-02    19.05    2.37973E-02  -160.95
  -45.00    35.00     -13.38  -13.46  -10.41    0.00000   -44.72  LINEAR    3.81660E-02    71.54    3.77936E-02  -108.46
  -40.00    35.00      -6.95   -7.73   -4.31    0.00000   -42.43  LINEAR    7.99817E-02   119.16    7.31078E-02   -60.84
  -35.00    35.00      -2.90   -4.26   -0.52    0.00000   -40.52  LINEAR    1.27494E-01   166.76    1.08982E-01   -13.24
  -30.00    35.00      -1.47   -3.32    0.72    0.00000   -38.96  LINEAR    1.50322E-01  -144.04    1.21540E-01    35.96
  -25.00    35.00      -2.59   -4.83   -0.56    0.00000   -37.69  LINEAR    1.32138E-01   -94.37    1.02089E-01    85.63
  -20.00    35.00      -5.77   -8.33   -3.86    0.00000   -36.69  LINEAR    9.15862E-02   -46.12    6.82450E-02   133.88
  -15.00    35.00      -8.22  -11.02   -6.39    0.00000   -35.94  LINEAR    6.90811E-02     7.48    5.00775E-02  -172.52
  -10.00    35.00      -6.03   -8.99   -4.25    0.00000   -35.41  LINEAR    8.89633E-02    79.27    6.32537E-02  -100.73
   -5.00    35.00      -2.24   -5.30   -0.50    0.00000   -35.10  LINEAR    1.37527E-01   149.38    9.66656E-02   -30.62
    0.00    35.00      -0.76   -3.85    0.97    0.00000   -35.00  LINEAR    1.63131E-01  -146.69    1.14226E-01    33.31
 -180.00    40.00      -1.34   -2.86    0.97    0.00000    40.00  LINEAR    1.52555E-01    33.31    1.28009E-01    33.31
 -175.00    40.00      -2.65   -4.14   -0.32    0.00000    40.11  LINEAR    1.31284E-01   -26.32    1.10581E-01   -26.32
 -170.00    40.00      -6.09   -7.48   -3.72    0.00000    40.43  LINEAR    8.83141E-02   -91.10    7.52475E-02   -91.10
 -165.00    40.00      -8.81  -10.03   -6.37    0.00000    40.98  LINEAR    6.45689E-02  -159.40    5.60910E-02  -159.40
 -160.00    40.00      -7.36   -8.35   -4.82    0.00000    41.76  LINEAR    7.62716E-02   146.96    6.81068E-02   146.96
 -155.00    40.00      -4.22   -4.89   -1.53    0.00000    42.79  LINEAR    1.09554E-01   102.43    1.01430E-01   102.43
 -150.00    40.00      -2.40   -2.67    0.48    0.00000    44.10  LINEAR    1.35053E-01    57.10    1.30854E-01    57.10
 -145.00    40.00      -2.69   -2.48    0.43    0.00000    45.69  LINEAR    1.30681E-01    11.80    1.33864E-01    11.80
 -140.00    40.00      -5.11   -4.32   -1.69    0.00000    47.61  LINEAR    9.88095E-02   -31.99    1.08233E-01   -31.99
 -135.00    40.00      -9.64   -8.16   -5.83    0.00000    49.88  LINEAR    5.86566E-02   -73.94    6.96058E-02   -73.94
 -130.00    40.00     -15.72  -13.40  -11.40    0.00000    52.55  LINEAR    2.91488E-02  -116.07    3.80510E-02  -116.07
 -125.00    40.00     -19.79  -16.49  -14.82    0.00000    55.64  LINEAR    1.82298E-02  -160.95    2.66689E-02  -160.95
 -120.00    40.00     -18.23  -13.74  -12.42    0.00000    59.21  LINEAR    2.18149E-02   164.87    3.66098E-02   164.87
 -115.00    40.00     -15.29   -9.33   -8.35    0.00000    63.27  LINEAR    3.06355E-02   141.30    6.08261E-02   141.30
 -110.00    40.00     -13.63   -5.84   -5.17    0.00000    67.82  LINEAR    3.70474E-02   121.96    9.08907E-02   121.96
 -105.00    40.00     -13.68   -3.46   -3.07    0.00000    72.86  LINEAR    3.68550E-02   106.35    1.19485E-01   106.35
 -100.00    40.00     -15.65   -1.97   -1.79    0.00000    78.31  LINEAR    2.93663E-02    94.89    1.41903E-01    94.89
  -95.00    40.00     -20.82   -1.15   -1.11    0.00000    84.07  LINEAR    1.61895E-02    87.91    1.55866E-01    87.91
  -90.00    40.00    -999.99   -0.90   -0.90    0.00000    90.00  LINEAR    9.76613E-13    85.57    1.60574E-01    85.57
  -85.00    40.00     -20.82   -1.15   -1.11    0.00000   -84.07  LINEAR    1.61895E-02   -92.09    1.55866E-01    87.91
  -80.00    40.00     -15.65   -1.97   -1.79    0.00000   -78.31  LINEAR    2.93663E-02   -85.11    1.41903E-01    94.89
  -75.00    40.00     -13.68   -3.46   -3.07    0.00000   -72.86  LINEAR    3.68550E-02   -73.65    1.19485E-01   106.35
  -70.00    40.00     -13.63   -5.84   -5.17    0.00000   -67.82  LINEAR    3.70474E-02   -58.04    9.08907E-02   121.96
  -65.00    40.00     -15.29   -9.33   -8.35    0.00000   -63.27  LINEAR    3.06355E-02   -38.70    6.08261E-02   141.30
  -60.00    40.00     -18.23  -13.74  -12.42    0.00000   -59.21  LINEAR    2.18149E-02   -15.13    3.66098E-02   164.87
  -55.00    40.00     -19.79  -16.49  -14.82    0.00000   -55.64  LINEAR    1.82298E-02    19.05    2.66689E-02  -160.95
  -50.00    40.00     -15.72  -13.40  -11.40    0.00000   -52.55  LINEAR    2.91488E-02    63.93    3.80510E-02  -116.07
  -45.00    40.00      -9.64   -8.16   -5.83    0.00000   -49.88  LINEAR    5.86566E-02   106.06    6.96058E-02   -73.94
  -40.00    40.00      -5.11   -4.32   -1.69    0.00000   -47.61  LINEAR    9.88095E-02   148.01    1.08233E-01   -31.99
  -35.00    40.00      -2.69   -2.48    0.43    0.00000   -45.69  LINEAR    1.30681E-01  -168.20    1.33864E-01    11.80
  -30.00    40.00      -2.40   -2.67    0.48    0.00000   -44.10  LINEAR    1.35053E-01  -122.90    1.30854E-01    57.10
  -25.00    40.00      -4.22   -4.89   -1.53    0.00000   -42.79  LINEAR    1.09554E-01   -77.57    1.01430E-01   102.43
  -20.00    40.00      -7.36   -8.35   -4.82    0.00000   -41.76  LINEAR    7.62716E-02   -33.04    6.81068E-02   146.96
  -15.00    40.00      -8.81  -10.03   -6.37    0.00000   -40.98  LINEAR    6.45689E-02    20.60    5.60910E-02  -159.40
  -10.00    40.00      -6.09   -7.48   -3.72    0.00000   -40.43  LINEAR    8.83141E-02    88.90    7.52475E-02   -91.10
   -5.00    40.00      -2.65   -4.14   -0.32    0.00000   -40.11  LINEAR    1.31284E-01   153.68    1.10581E-01   -26.32
    0.00    40.00      -1.34   -2.86    0.97    0.00000   -40.00  LINEAR    1.52555E-01  -146.69    1.28009E-01    33.31
 -180.00    45.00      -2.04   -2.04    0.97    0.00000    45.00  LINEAR    1.40818E-01    33.31    1.40818E-01    33.31
 -175.00    45.00      -3.16   -3.12   -0.13    0.00000    45.11  LINEAR    1.23798E-01   -21.57    1.24271E-01   -21.57
 -170.00    45.00      -6.20   -6.07   -3.12    0.00000    45.44  LINEAR    8.71995E-02   -80.59    8.85447E-02   -80.59
 -165.00    45.00      -9.24   -8.94   -6.08    0.00000    45.99  LINEAR    6.14238E-02  -143.92    6.35906E-02  -143.92
 -160.00    45.00      -8.99   -8.45   -5.71    0.00000    46.78  LINEAR    6.32069E-02   162.15    6.72634E-02   162.15
 -155.00    45.00      -6.28   -5.43   -2.82    0.00000    47.81  LINEAR    8.63846E-02   120.54    9.53148E-02   120.54
 -150.00    45.00      -3.97   -2.72   -0.29    0.00000    49.11  LINEAR    1.12720E-01    80.01    1.30158E-01    80.01
 -145.00    45.00      -3.25   -1.52    0.71    0.00000    50.68  LINEAR    1.22395E-01    39.17    1.49417E-01    39.17
 -140.00    45.00      -4.27   -1.96    0.05    0.00000    52.55  LINEAR    1.08842E-01    -0.60    1.42083E-01    -0.60
 -135.00    45.00      -6.95   -3.94   -2.18    0.00000    54.74  LINEAR    7.99542E-02   -38.35    1.13072E-01   -38.35
 -130.00    45.00     -11.17   -7.33   -5.83    0.00000    57.27  LINEAR    4.92187E-02   -73.94    7.65707E-02   -73.94
 -125.00    45.00     -16.47  -11.64  -10.41    0.00000    60.16  LINEAR    2.67241E-02  -108.46    4.65921E-02  -108.46
 -120.00    45.00     -21.16  -15.14  -14.17    0.00000    63.43  LINEAR    1.55703E-02  -143.83    3.11406E-02  -143.83
 -115.00    45.00     -22.70  -15.22  -14.51    0.00000    67.09  LINEAR    1.30461E-02  -175.01    3.08696E-02  -175.01
 -110.00    45.00     -22.09  -12.77  -12.29    0.00000    71.12  LINEAR    1.39953E-02   164.02    4.09196E-02   164.02
 -105.00    45.00     -21.88  -10.14   -9.86    0.00000    75.49  LINEAR    1.43369E-02   149.73    5.53936E-02   149.73
 -100.00    45.00     -23.41   -8.20   -8.07    0.00000    80.15  LINEAR    1.20287E-02   139.74    6.92702E-02   139.74
  -95.00    45.00     -28.26   -7.06   -7.03    0.00000    85.02  LINEAR    6.88091E-03   133.69    7.89496E-02   133.69
  -90.00    45.00    -999.99   -6.69   -6.69    0.00000    90.00  LINEAR    4.20476E-13   131.66    8.23912E-02   131.66
  -85.00    45.00     -28.26   -7.06   -7.03    0.00000   -85.02  LINEAR    6.88091E-03   -46.31    7.89496E-02   133.69
  -80.00    45.00     -23.41   -8.20   -8.07    0.00000   -80.15  LINEAR    1.20287E-02   -40.26    6.92702E-02   139.74
  -75.00    45.00     -21.88  -10.14   -9.86    0.00000   -75.49  LINEAR    1.43369E-02   -30.27    5.53936E-02   149.73
  -70.00    45.00     -22.09  -12.77  -12.29    0.00000   -71.12  LINEAR    1.39953E-02   -15.98    4.09196E-02   164.02
  -65.00    45.00     -22.70  -15.22  -14.51    0.00000   -67.09  LINEAR    1.30461E-02     4.99    3.08696E-02  -175.01
  -60.00    45.00     -21.16  -15.14  -14.17    0.00000   -63.43  LINEAR    1.55703E-02    36.17    3.11406E-02  -143.83
  -55.00    45.00     -16.47  -11.64  -10.41    0.00000   -60.16  LINEAR    2.67241E-02    71.54    4.65921E-02  -108.46
  -50.00    45.00     -11.17   -7.33   -5.83    0.00000   -57.27  LINEAR    4.92187E-02   106.06    7.65707E-02   -73.94
  -45.00    45.00      -6.95   -3.94   -2.18    0.00000   -54.74  LINEAR    7.99542E-02   141.65    1.13072E-01   -38.35
  -40.00    45.00      -4.27   -1.96    0.05    0.00000   -52.55  LINEAR    1.08842E-01   179.40    1.42083E-01    -0.60
  -35.00    45.00      -3.25   -1.52    0.71    0.00000   -50.68  LINEAR    1.22395E-01  -140.83    1.49417E-01    39.17
  -30.00    45.00      -3.97   -2.72   -0.29    0.00000   -49.11  LINEAR    1.12720E-01   -99.99    1.30158E-01    80.01
  -25.00    45.00      -6.28   -5.43   -2.82    0.00000   -47.81  LINEAR    8.63846E-02   -59.46    9.53148E-02   120.54
  -20.00    45.00      -8.99   -8.45   -5.71    0.00000   -46.78  LINEAR    6.32069E-02   -17.85    6.72634E-02   162.15
  -15.00    45.00      -9.24   -8.94   -6.08    0.00000   -45.99  LINEAR    6.14238E-02    36.08    6.35906E-02  -143.92
  -10.00    45.00      -6.20   -6.07   -3.12    0.00000   -45.44  LINEAR    8.71995E-02    99.41    8.85447E-02   -80.59
   -5.00    45.00      -3.16   -3.12   -0.13    0.00000   -45.11  LINEAR    1.23798E-01   158.43    1.24271E-01   -21.57
    0.00    45.00      -2.04   -2.04    0.97    0.00000   -45.00  LINEAR    1.40818E-01  -146.69    1.40818E-01    33.31
 -180.00    50.00      -2.86   -1.34    0.97    0.00000    50.00  LINEAR    1.28009E-01    33.31    1.52555E-01    33.31
 -175.00    50.00      -3.80   -2.24    0.06    0.00000    50.11  LINEAR    1.14979E-01   -16.43    1.37550E-01   -16.43
 -170.00    50.00      -6.40   -4.74   -2.48    0.00000    50.43  LINEAR    8.52268E-02   -69.34    1.03136E-01   -69.34
 -165.00    50.00      -9.50   -7.67   -5.48    0.00000    50.97  LINEAR    5.96422E-02  -126.35    7.35862E-02  -126.35
 -160.00    50.00     -10.46   -8.40   -6.30    0.00000    51.74  LINEAR    5.33691E-02  -179.59    6.76846E-02  -179.59
 -155.00    50.00      -8.68   -6.30   -4.32    0.00000    52.75  LINEAR    6.55581E-02   139.97    8.62060E-02   139.97
 -150.00    50.00      -6.26   -3.48   -1.64    0.00000    53.99  LINEAR    8.66211E-02   104.16    1.19201E-01   104.16
 -145.00    50.00      -4.77   -1.51    0.17    0.00000    55.50  LINEAR    1.02785E-01    68.33    1.49538E-01    68.33
 -140.00    50.00      -4.63   -0.79    0.71    0.00000    57.27  LINEAR    1.04496E-01    33.06    1.62567E-01    33.06
 -135.00    50.00      -5.80   -1.26    0.05    0.00000    59.32  LINEAR    9.13295E-02    -0.60    1.53926E-01    -0.60
 -130.00    50.00      -8.16   -2.80   -1.69    0.00000    61.66  LINEAR    6.95706E-02   -31.99    1.28987E-01   -31.99
 -125.00    50.00     -11.57   -5.22   -4.31    0.00000    64.30  LINEAR    4.69928E-02   -60.84    9.76396E-02   -60.84
 -120.00    50.00     -15.79   -8.24   -7.54    0.00000    67.24  LINEAR    2.89211E-02   -87.27    6.89338E-02   -87.27
 -115.00    50.00     -20.36  -11.36  -10.84    0.00000    70.47  LINEAR    1.70725E-02  -111.77    4.81432E-02  -111.77
 -110.00    50.00     -24.62  -13.77  -13.43    0.00000    73.99  LINEAR    1.04648E-02  -134.43    3.64640E-02  -134.43
 -105.00    50.00     -28.13  -14.87  -14.67    0.00000    77.75  LINEAR    6.98143E-03  -153.52    3.21466E-02  -153.52
 -100.00    50.00     -31.62  -14.89  -14.79    0.00000    81.71  LINEAR    4.67396E-03  -166.94    3.20776E-02  -166.94
  -95.00    50.00     -37.27  -14.56  -14.53    0.00000    85.82  LINEAR    2.43667E-03  -174.50    3.33187E-02  -174.50
  -90.00    50.00    -999.99  -14.39  -14.39    0.00000    90.00  LINEAR    1.45386E-13  -176.91    3.39507E-02  -176.91
  -85.00    50.00     -37.27  -14.56  -14.53    0.00000   -85.82  LINEAR    2.43667E-03     5.50    3.33187E-02  -174.50
  -80.00    50.00     -31.62  -14.89  -14.79    0.00000   -81.71  LINEAR    4.67396E-03    13.06    3.20776E-02  -166.94
  -75.00    50.00     -28.13  -14.87  -14.67    0.00000   -77.75  LINEAR    6.98143E-03    26.48    3.21466E-02  -153.52
  -70.00    50.00     -24.62  -13.77  -13.43    0.00000   -73.99  LINEAR    1.04648E-02    45.57    3.64640E-02  -134.43
  -65.00    50.00     -20.36  -11.36  -10.84    0.00000   -70.47  LINEAR    1.70725E-02    68.23    4.81432E-02  -111.77
  -60.00    50.00     -15.79   -8.24   -7.54    0.00000   -67.24  LINEAR    2.89211E-02    92.73    6.89338E-02   -87.27
  -55.00    50.00     -11.57   -5.22   -4.31    0.00000   -64.30  LINEAR    4.69928E-02   119.16    9.76396E-02   -60.84
  -50.00    50.00      -8.16   -2.80   -1.69    0.00000   -61.66  LINEAR    6.95706E-02   148.01    1.28987E-01   -31.99
  -45.00    50.00      -5.80   -1.26    0.05    0.00000   -59.32  LINEAR    9.13295E-02   179.40    1.53926E-01    -0.60
  -40.00    50.00      -4.63   -0.79    0.71    0.00000   -57.27  LINEAR    1.04496E-01  -146.94    1.62567E-01    33.06
  -35.00    50.00      -4.77   -1.51    0.17    0.00000   -55.50  LINEAR    1.02785E-01  -111.67    1.49538E-01    68.33
  -30.00    50.00      -6.26   -3.48   -1.64    0.00000   -53.99  LINEAR    8.66211E-02   -75.84    1.19201E-01   104.16
  -25.00    50.00      -8.68   -6.30   -4.32    0.00000   -52.75  LINEAR    6.55581E-02   -40.03    8.62060E-02   139.97
  -20.00    50.00     -10.46   -8.40   -6.30    0.00000   -51.74  LINEAR    5.33691E-02     0.41    6.76846E-02  -179.59
  -15.00    50.00      -9.50   -7.67   -5.48    0.00000   -50.97  LINEAR    5.96422E-02    53.65    7.35862E-02  -126.35
  -10.00    50.00      -6.40   -4.74   -2.48    0.00000   -50.43  LINEAR    8.52268E-02   110.66    1.03136E-01   -69.34
   -5.00    50.00      -3.80   -2.24    0.06    0.00000   -50.11  LINEAR    1.14979E-01   163.57    1.37550E-01   -16.43
    0.00    50.00      -2.86   -1.34    0.97    0.00000   -50.00  LINEAR    1.28009E-01  -146.69    1.52555E-01    33.31
 -180.00    55.00      -3.85   -0.76    0.97    0.00000    55.00  LINEAR    1.14226E-01    33.31    1.63131E-01    33.31
 -175.00    55.00      -4.61   -1.48    0.25    0.00000    55.10  LINEAR    1.04768E-01   -10.93    1.50196E-01   -10.93
 -170.00    55.00      -6.74   -3.51   -1.82    0.00000    55.41  LINEAR    8.19267E-02   -57.49    1.18808E-01   -57.49
 -165.00    55.00      -9.63   -6.23   -4.59    0.00000    55.93  LINEAR    5.87763E-02  -107.28    8.69023E-02  -107.28
 -160.00    55.00     -11.54   -7.91   -6.34    0.00000    56.66  LINEAR    4.71388E-02  -157.33    7.16417E-02  -157.33
 -155.00    55.00     -11.10   -7.15   -5.68    0.00000    57.60  LINEAR    4.95757E-02   161.71    7.81207E-02   161.71
 -150.00    55.00      -9.19   -4.85   -3.49    0.00000    58.77  LINEAR    6.17732E-02   129.16    1.01869E-01   129.16
 -145.00    55.00      -7.34   -2.52   -1.28    0.00000    60.16  LINEAR    7.64244E-02    98.55    1.33242E-01    98.55
 -140.00    55.00      -6.34   -0.93    0.17    0.00000    61.79  LINEAR    8.57714E-02    68.33    1.59905E-01    68.33
 -135.00    55.00      -6.35   -0.24    0.71    0.00000    63.66  LINEAR    8.57022E-02    39.17    1.73093E-01    39.17
 -130.00    55.00      -7.30   -0.37    0.43    0.00000    65.77  LINEAR    7.67810E-02    11.80    1.70592E-01    11.80
 -125.00    55.00      -9.09   -1.17   -0.52    0.00000    68.12  LINEAR    6.25092E-02   -13.24    1.55642E-01   -13.24
 -120.00    55.00     -11.58   -2.47   -1.96    0.00000    70.70  LINEAR    4.69226E-02   -35.61    1.34025E-01   -35.61
 -115.00    55.00     -14.65   -4.08   -3.71    0.00000    73.52  LINEAR    3.29488E-02   -55.11    1.11343E-01   -55.11
 -110.00    55.00     -18.20   -5.78   -5.54    0.00000    76.53  LINEAR    2.19071E-02   -71.59    9.14756E-02   -71.59
 -105.00    55.00     -22.20   -7.36   -7.22    0.00000    79.73  LINEAR    1.38229E-02   -84.89    7.62741E-02   -84.89
 -100.00    55.00     -26.91   -8.61   -8.55    0.00000    83.07  LINEAR    8.03062E-03   -94.77    6.60468E-02   -94.77
  -95.00    55.00     -33.69   -9.40   -9.39    0.00000    86.51  LINEAR    3.68070E-03  -100.89    6.03125E-02  -100.89
  -90.00    55.00    -999.99   -9.67   -9.67    0.00000    90.00  LINEAR    2.08988E-13  -102.98    5.84834E-02  -102.98
  -85.00    55.00     -33.69   -9.40   -9.39    0.00000   -86.51  LINEAR    3.68070E-03    79.11    6.03125E-02  -100.89
  -80.00    55.00     -26.91   -8.61   -8.55    0.00000   -83.07  LINEAR    8.03062E-03    85.23    6.60468E-02   -94.77
  -75.00    55.00     -22.20   -7.36   -7.22    0.00000   -79.73  LINEAR    1.38229E-02    95.11    7.62741E-02   -84.89
  -70.00    55.00     -18.20   -5.78   -5.54    0.00000   -76.53  LINEAR    2.19071E-02   108.41    9.14756E-02   -71.59
  -65.00    55.00     -14.65   -4.08   -3.71    0.00000   -73.52  LINEAR    3.29488E-02   124.89    1.11343E-01   -55.11
  -60.00    55.00     -11.58   -2.47   -1.96    0.00000   -70.70  LINEAR    4.69226E-02   144.39    1.34025E-01   -35.61
  -55.00    55.00      -9.09   -1.17   -0.52    0.00000   -68.12  LINEAR    6.25092E-02   166.76    1.55642E-01   -13.24
  -50.00    55.00      -7.30   -0.37    0.43    0.00000   -65.77  LINEAR    7.67810E-02  -168.20    1.70592E-01    11.80
  -45.00    55.00      -6.35   -0.24    0.71    0.00000   -63.66  LINEAR    8.57022E-02  -140.83    1.73093E-01    39.17
  -40.00    55.00      -6.34   -0.93    0.17    0.00000   -61.79  LINEAR    8.57714E-02  -111.67    1.59905E-01    68.33
  -35.00    55.00      -7.34   -2.52   -1.28    0.00000   -60.16  LINEAR    7.64244E-02   -81.45    1.33242E-01    98.55
  -30.00    55.00      -9.19   -4.85   -3.49    0.00000   -58.77  LINEAR    6.17732E-02   -50.84    1.01869E-01   129.16
  -25.00    55.00     -11.10   -7.15   -5.68    0.00000   -57.60  LINEAR    4.95757E-02   -18.29    7.81207E-02   161.71
  -20.00    55.00     -11.54   -7.91   -6.34    0.00000   -56.66  LINEAR    4.71388E-02    22.67    7.16417E-02  -157.33
  -15.00    55.00      -9.63   -6.23   -4.59    0.00000   -55.93  LINEAR    5.87763E-02    72.72    8.69023E-02  -107.28
  -10.00    55.00      -6.74   -3.51   -1.82    0.00000   -55.41  LINEAR    8.19267E-02   122.51    1.18808E-01   -57.49
   -5.00    55.00      -4.61   -1.48    0.25    0.00000   -55.10  LINEAR    1.04768E-01   169.07    1.50196E-01   -10.93
    0.00    55.00      -3.85   -0.76    0.97    0.00000   -55.00  LINEAR    1.14226E-01  -146.69    1.63131E-01    33.31
 -180.00    60.00      -5.05   -0.28    0.97    0.00000    60.00  LINEAR    9.95734E-02    33.31    1.72466E-01    33.31
 -175.00    60.00      -5.63   -0.82    0.42    0.00000    60.09  LINEAR    9.31476E-02    -5.13    1.61953E-01    -5.13
 -170.00    60.00      -7.30   -2.40   -1.18    0.00000    60.38  LINEAR    7.68190E-02   -45.17    1.35107E-01   -45.17
 -165.00    60.00      -9.76   -4.68   -3.51    0.00000    60.85  LINEAR    5.78966E-02   -87.37    1.03817E-01   -87.37
 -160.00    60.00     -12.11   -6.79   -5.67    0.00000    61.52  LINEAR    4.41763E-02  -131.29    8.14261E-02  -131.29
 -155.00    60.00     -13.07   -7.44   -6.39    0.00000    62.38  LINEAR    3.95374E-02  -171.88    7.55601E-02  -171.88
 -150.00    60.00     -12.37   -6.35   -5.38    0.00000    63.43  LINEAR    4.28693E-02   155.87    8.57385E-02   155.87
 -145.00    60.00     -10.87   -4.37   -3.49    0.00000    64.69  LINEAR    5.09346E-02   129.16    1.07698E-01   129.16
 -140.00    60.00      -9.50   -2.42   -1.64    0.00000    66.14  LINEAR    5.96004E-02   104.16    1.34758E-01   104.16
 -135.00    60.00      -8.74   -0.96   -0.29    0.00000    67.79  LINEAR    6.50792E-02    80.01    1.59411E-01    80.01
 -130.00    60.00      -8.69   -0.08    0.48    0.00000    69.64  LINEAR    6.54272E-02    57.10    1.76300E-01    57.10
 -125.00    60.00      -9.34    0.26    0.72    0.00000    71.68  LINEAR    6.07699E-02    35.96    1.83509E-01    35.96
 -120.00    60.00     -10.60    0.20    0.54    0.00000    73.90  LINEAR    5.25609E-02    17.00    1.82076E-01    17.00
 -115.00    60.00     -12.42   -0.16    0.09    0.00000    76.29  LINEAR    4.26302E-02     0.53    1.74715E-01     0.53
 -110.00    60.00     -14.77   -0.68   -0.52    0.00000    78.83  LINEAR    3.24925E-02   -13.24    1.64548E-01   -13.24
 -105.00    60.00     -17.76   -1.24   -1.15    0.00000    81.50  LINEAR    2.30530E-02   -24.12    1.54274E-01   -24.12
 -100.00    60.00     -21.71   -1.73   -1.69    0.00000    84.27  LINEAR    1.46194E-02   -31.99    1.45821E-01   -31.99
  -95.00    60.00     -28.03   -2.06   -2.05    0.00000    87.12  LINEAR    7.06295E-03   -36.76    1.40362E-01   -36.76
  -90.00    60.00    -999.99   -2.18   -2.18    0.00000    90.00  LINEAR    4.08039E-13   -38.35    1.38485E-01   -38.35
  -85.00    60.00     -28.03   -2.06   -2.05    0.00000   -87.12  LINEAR    7.06295E-03   143.24    1.40362E-01   -36.76
  -80.00    60.00     -21.71   -1.73   -1.69    0.00000   -84.27  LINEAR    1.46194E-02   148.01    1.45821E-01   -31.99
  -75.00    60.00     -17.76   -1.24   -1.15    0.00000   -81.50  LINEAR    2.30530E-02   155.88    1.54274E-01   -24.12
  -70.00    60.00     -14.77   -0.68   -0.52    0.00000   -78.83  LINEAR    3.24925E-02   166.76    1.64548E-01   -13.24
  -65.00    60.00     -12.42   -0.16    0.09    0.00000   -76.29  LINEAR    4.26302E-02  -179.47    1.74715E-01     0.53
  -60.00    60.00     -10.60    0.20    0.54    0.00000   -73.90  LINEAR    5.25609E-02  -163.00    1.82076E-01    17.00
  -55.00    60.00      -9.34    0.26    0.72    0.00000   -71.68  LINEAR    6.07699E-02  -144.04    1.83509E-01    35.96
  -50.00    60.00      -8.69   -0.08    0.48    0.00000   -69.64  LINEAR    6.54272E-02  -122.90    1.76300E-01    57.10
  -45.00    60.00      -8.74   -0.96   -0.29    0.00000   -67.79  LINEAR    6.50792E-02   -99.99    1.59411E-01    80.01
  -40.00    60.00      -9.50   -2.42   -1.64    0.00000   -66.14  LINEAR    5.96004E-02   -75.84    1.34758E-01   104.16
  -35.00    60.00     -10.87   -4.37   -3.49    0.00000   -64.69  LINEAR    5.09346E-02   -50.84    1.07698E-01   129.16
  -30.00    60.00     -12.37   -6.35   -5.38    0.00000   -63.43  LINEAR    4.28693E-02   -24.13    8.57385E-02   155.87
  -25.00    60.00     -13.07   -7.44   -6.39    0.00000   -62.38  LINEAR    3.95374E-02     8.12    7.55601E-02  -171.88
  -20.00    60.00     -12.11   -6.79   -5.67    0.00000   -61.52  LINEAR    4.41763E-02    48.71    8.14261E-02  -131.29
  -15.00    60.00      -9.76   -4.68   -3.51    0.00000   -60.85  LINEAR    5.78966E-02    92.63    1.03817E-01   -87.37
  -10.00    60.00      -7.30   -2.40   -1.18    0.00000   -60.38  LINEAR    7.68190E-02   134.83    1.35107E-01   -45.17
   -5.00    60.00      -5.63   -0.82    0.42    0.00000   -60.09  LINEAR    9.31476E-02   174.87    1.61953E-01    -5.13
    0.00    60.00      -5.05   -0.28    0.97    0.00000   -60.00  LINEAR    9.95734E-02  -146.69    1.72466E-01    33.31
 -180.00    65.00      -6.51    0.12    0.97    0.00000    65.00  LINEAR    8.41630E-02    33.31    1.80488E-01    33.31
 -175.00    65.00      -6.93   -0.27    0.58    0.00000    65.08  LINEAR    8.01530E-02     0.92    1.72545E-01     0.92
 -170.00    65.00      -8.17   -1.41   -0.58    0.00000    65.33  LINEAR    6.94973E-02   -32.48    1.51337E-01   -32.48
 -165.00    65.00     -10.09   -3.16   -2.36    0.00000    65.75  LINEAR    5.57463E-02   -67.12    1.23766E-01   -67.12
 -160.00    65.00     -12.31   -5.14   -4.38    0.00000    66.34  LINEAR    4.31637E-02  -103.15    9.85054E-02  -103.15
 -155.00    65.00     -14.14   -6.66   -5.95    0.00000    67.09  LINEAR    3.49441E-02  -139.31    8.26848E-02  -139.31
 -150.00    65.00     -14.92   -7.05   -6.39    0.00000    68.01  LINEAR    3.19331E-02  -171.88    7.90747E-02  -171.88
 -145.00    65.00     -14.64   -6.28   -5.68    0.00000    69.09  LINEAR    3.30153E-02   161.71    8.64326E-02   161.71
 -140.00    65.00     -13.78   -4.84   -4.32    0.00000    70.34  LINEAR    3.64322E-02   139.97    1.01990E-01   139.97
 -135.00    65.00     -12.91   -3.27   -2.82    0.00000    71.75  LINEAR    4.02818E-02   120.54    1.22166E-01   120.54
 -130.00    65.00     -12.37   -1.90   -1.53    0.00000    73.31  LINEAR    4.28660E-02   102.43    1.43012E-01   102.43
 -125.00    65.00     -12.31   -0.86   -0.56    0.00000    75.03  LINEAR    4.31448E-02    85.63    1.61311E-01    85.63
 -120.00    65.00     -12.78   -0.14    0.09    0.00000    76.88  LINEAR    4.08640E-02    70.42    1.75266E-01    70.42
 -115.00    65.00     -13.80    0.31    0.48    0.00000    78.85  LINEAR    3.63595E-02    57.10    1.84500E-01    57.10
 -110.00    65.00     -15.40    0.55    0.66    0.00000    80.94  LINEAR    3.02476E-02    45.92    1.89656E-01    45.92
 -105.00    65.00     -17.72    0.65    0.71    0.00000    83.12  LINEAR    2.31589E-02    37.05    1.91888E-01    37.05
 -100.00    65.00     -21.16    0.68    0.70    0.00000    85.37  LINEAR    1.55819E-02    30.63    1.92432E-01    30.63
  -95.00    65.00     -27.15    0.67    0.68    0.00000    87.67  LINEAR    7.81600E-03    26.74    1.92316E-01    26.74
  -90.00    65.00    -999.99    0.67    0.67    0.00000    90.00  LINEAR    4.57395E-13    25.44    1.92202E-01    25.44
  -85.00    65.00     -27.15    0.67    0.68    0.00000   -87.67  LINEAR    7.81600E-03  -153.26    1.92316E-01    26.74
  -80.00    65.00     -21.16    0.68    0.70    0.00000   -85.37  LINEAR    1.55819E-02  -149.37    1.92432E-01    30.63
  -75.00    65.00     -17.72    0.65    0.71    0.00000   -83.12  LINEAR    2.31589E-02  -142.95    1.91888E-01    37.05
  -70.00    65.00     -15.40    0.55    0.66    0.00000   -80.94  LINEAR    3.02476E-02  -134.08    1.89656E-01    45.92
  -65.00    65.00     -13.80    0.31    0.48    0.00000   -78.85  LINEAR    3.63595E-02  -122.90    1.84500E-01    57.10
  -60.00    65.00     -12.78   -0.14    0.09    0.00000   -76.88  LINEAR    4.08640E-02  -109.58    1.75266E-01    70.42
  -55.00    65.00     -12.31   -0.86   -0.56    0.00000   -75.03  LINEAR    4.31448E-02   -94.37    1.61311E-01    85.63
  -50.00    65.00     -12.37   -1.90   -1.53    0.00000   -73.31  LINEAR    4.28660E-02   -77.57    1.43012E-01   102.43
  -45.00    65.00     -12.91   -3.27   -2.82    0.00000   -71.75  LINEAR    4.02818E-02   -59.46    1.22166E-01   120.54
  -40.00    65.00     -13.78   -4.84   -4.32    0.00000   -70.34  LINEAR    3.64322E-02   -40.03    1.01990E-01   139.97
  -35.00    65.00     -14.64   -6.28   -5.68    0.00000   -69.09  LINEAR    3.30153E-02   -18.29    8.64326E-02   161.71
  -30.00    65.00     -14.92   -7.05   -6.39    0.00000   -68.01  LINEAR    3.19331E-02     8.12    7.90747E-02  -171.88
  -25.00    65.00     -14.14   -6.66   -5.95    0.00000   -67.09  LINEAR    3.49441E-02    40.69    8.26848E-02  -139.31
  -20.00    65.00     -12.31   -5.14   -4.38    0.00000   -66.34  LINEAR    4.31637E-02    76.85    9.85054E-02  -103.15
  -15.00    65.00     -10.09   -3.16   -2.36    0.00000   -65.75  LINEAR    5.57463E-02   112.88    1.23766E-01   -67.12
  -10.00    65.00      -8.17   -1.41   -0.58    0.00000   -65.33  LINEAR    6.94973E-02   147.52    1.51337E-01   -32.48
   -5.00    65.00      -6.93   -0.27    0.58    0.00000   -65.08  LINEAR    8.01530E-02  -179.08    1.72545E-01     0.92
    0.00    65.00      -6.51    0.12    0.97    0.00000   -65.00  LINEAR    8.41630E-02  -146.69    1.80488E-01    33.31
 -180.00    70.00      -8.35    0.43    0.97    0.00000    70.00  LINEAR    6.81122E-02    33.31    1.87137E-01    33.31
 -175.00    70.00      -8.63    0.18    0.71    0.00000    70.07  LINEAR    6.58796E-02     7.19    1.81694E-01     7.19
 -170.00    70.00      -9.49   -0.58   -0.05    0.00000    70.28  LINEAR    5.97184E-02   -19.51    1.66606E-01   -19.51
 -165.00    70.00     -10.85   -1.77   -1.26    0.00000    70.63  LINEAR    5.10651E-02   -46.79    1.45250E-01   -46.79
 -160.00    70.00     -12.59   -3.27   -2.79    0.00000    71.12  LINEAR    4.18032E-02   -74.71    1.22224E-01   -74.71
 -155.00    70.00     -14.46   -4.83   -4.38    0.00000    71.74  LINEAR    3.36908E-02  -103.15    1.02134E-01  -103.15
 -150.00    70.00     -16.11   -6.09   -5.67    0.00000    72.50  LINEAR    2.78494E-02  -131.29    8.83525E-02  -131.29
 -145.00    70.00     -17.23   -6.71   -6.34    0.00000    73.40  LINEAR    2.45029E-02  -157.33    8.21840E-02  -157.33
 -140.00    70.00     -17.72   -6.63   -6.30    0.00000    74.42  LINEAR    2.31495E-02  -179.59    8.30275E-02  -179.59
 -135.00    70.00     -17.77   -5.98   -5.71    0.00000    75.57  LINEAR    2.30054E-02   162.15    8.93881E-02   162.15
 -130.00    70.00     -17.66   -5.05   -4.82    0.00000    76.83  LINEAR    2.32939E-02   146.96    9.95654E-02   146.96
 -125.00    70.00     -17.65   -4.04   -3.86    0.00000    78.21  LINEAR    2.33412E-02   133.88    1.11806E-01   133.88
 -120.00    70.00     -17.91   -3.11   -2.97    0.00000    79.69  LINEAR    2.26503E-02   122.43    1.24462E-01   122.43
 -115.00    70.00     -18.58   -2.32   -2.22    0.00000    81.26  LINEAR    2.09534E-02   112.50    1.36220E-01   112.50
 -110.00    70.00     -19.81   -1.71   -1.64    0.00000    82.90  LINEAR    1.82024E-02   104.16    1.46221E-01   104.16
 -105.00    70.00     -21.78   -1.26   -1.22    0.00000    84.62  LINEAR    1.45108E-02    97.52    1.54039E-01    97.52
 -100.00    70.00     -24.94   -0.95   -0.93    0.00000    86.38  LINEAR    1.00841E-02    92.70    1.59552E-01    92.70
  -95.00    70.00     -30.75   -0.78   -0.77    0.00000    88.18  LINEAR    5.16450E-03    89.77    1.62805E-01    89.77
  -90.00    70.00    -999.99   -0.72   -0.72    0.00000    90.00  LINEAR    3.04399E-13    88.78    1.63877E-01    88.78
  -85.00    70.00     -30.75   -0.78   -0.77    0.00000   -88.18  LINEAR    5.16450E-03   -90.23    1.62805E-01    89.77
  -80.00    70.00     -24.94   -0.95   -0.93    0.00000   -86.38  LINEAR    1.00841E-02   -87.30    1.59552E-01    92.70
  -75.00    70.00     -21.78   -1.26   -1.22    0.00000   -84.62  LINEAR    1.45108E-02   -82.48    1.54039E-01    97.52
  -70.00    70.00     -19.81   -1.71   -1.64    0.00000   -82.90  LINEAR    1.82024E-02   -75.84    1.46221E-01   104.16
  -65.00    70.00     -18.58   -2.32   -2.22    0.00000   -81.26  LINEAR    2.09534E-02   -67.50    1.36220E-01   112.50
  -60.00    70.00     -17.91   -3.11   -2.97    0.00000   -79.69  LINEAR    2.26503E-02   -57.57    1.24462E-01   122.43
  -55.00    70.00     -17.65   -4.04   -3.86    0.00000   -78.21  LINEAR    2.33412E-02   -46.12    1.11806E-01   133.88
  -50.00    70.00     -17.66   -5.05   -4.82    0.00000   -76.83  LINEAR    2.32939E-02   -33.04    9.95654E-02   146.96
  -45.00    70.00     -17.77   -5.98   -5.71    0.00000   -75.57  LINEAR    2.30054E-02   -17.85    8.93881E-02   162.15
  -40.00    70.00     -17.72   -6.63   -6.30    0.00000   -74.42  LINEAR    2.31495E-02     0.41    8.30275E-02  -179.59
  -35.00    70.00     -17.23   -6.71   -6.34    0.00000   -73.40  LINEAR    2.45029E-02    22.67    8.21840E-02  -157.33
  -30.00    70.00     -16.11   -6.09   -5.67    0.00000   -72.50  LINEAR    2.78494E-02    48.71    8.83525E-02  -131.29
  -25.00    70.00     -14.46   -4.83   -4.38    0.00000   -71.74  LINEAR    3.36908E-02    76.85    1.02134E-01  -103.15
  -20.00    70.00     -12.59   -3.27   -2.79    0.00000   -71.12  LINEAR    4.18032E-02   105.29    1.22224E-01   -74.71
  -15.00    70.00     -10.85   -1.77   -1.26    0.00000   -70.63  LINEAR    5.10651E-02   133.21    1.45250E-01   -46.79
  -10.00    70.00      -9.49   -0.58   -0.05    0.00000   -70.28  LINEAR    5.97184E-02   160.49    1.66606E-01   -19.51
   -5.00    70.00      -8.63    0.18    0.71    0.00000   -70.07  LINEAR    6.58796E-02  -172.81    1.81694E-01     7.19
    0.00    70.00      -8.35    0.43    0.97    0.00000   -70.00  LINEAR    6.81122E-02  -146.69    1.87137E-01    33.31
 -180.00    75.00     -10.77    0.67    0.97    0.00000    75.00  LINEAR    5.15430E-02    33.31    1.92361E-01    33.31
 -175.00    75.00     -10.95    0.53    0.82    0.00000    75.05  LINEAR    5.04854E-02    13.61    1.89134E-01    13.61
 -170.00    75.00     -11.48    0.09    0.38    0.00000    75.22  LINEAR    4.74763E-02    -6.37    1.79917E-01    -6.37
 -165.00    75.00     -12.35   -0.61   -0.33    0.00000    75.49  LINEAR    4.29673E-02   -26.52    1.66013E-01   -26.52
 -160.00    75.00     -13.51   -1.53   -1.26    0.00000    75.87  LINEAR    3.75933E-02   -46.79    1.49304E-01   -46.79
 -155.00    75.00     -14.90   -2.60   -2.36    0.00000    76.35  LINEAR    3.20329E-02   -67.12    1.31907E-01   -67.12
 -150.00    75.00     -16.42   -3.74   -3.51    0.00000    76.94  LINEAR    2.68699E-02   -87.37    1.15793E-01   -87.37
 -145.00    75.00     -17.97   -4.80   -4.59    0.00000    77.62  LINEAR    2.24920E-02  -107.28    1.02473E-01  -107.28
 -140.00    75.00     -19.41   -5.66   -5.48    0.00000    78.40  LINEAR    1.90455E-02  -126.35    9.27868E-02  -126.35
 -135.00    75.00     -20.68   -6.23   -6.08    0.00000    79.27  LINEAR    1.64585E-02  -143.92    8.68664E-02  -143.92
 -130.00    75.00     -21.77   -6.49   -6.37    0.00000    80.23  LINEAR    1.45174E-02  -159.40    8.42887E-02  -159.40
 -125.00    75.00     -22.76   -6.49   -6.39    0.00000    81.26  LINEAR    1.29610E-02  -172.52    8.43325E-02  -172.52
 -120.00    75.00     -23.76   -6.30   -6.22    0.00000    82.37  LINEAR    1.15486E-02   176.67    8.61997E-02   176.67
 -115.00    75.00     -24.93   -6.01   -5.95    0.00000    83.54  LINEAR    1.00934E-02   167.96    8.91330E-02   167.96
 -110.00    75.00     -26.45   -5.69   -5.65    0.00000    84.76  LINEAR    8.47364E-03   161.09    9.24626E-02   161.09
 -105.00    75.00     -28.58   -5.40   -5.38    0.00000    86.03  LINEAR    6.63190E-03   155.87    9.56289E-02   155.87
 -100.00    75.00     -31.81   -5.17   -5.16    0.00000    87.34  LINEAR    4.56895E-03   152.20    9.81959E-02   152.20
  -95.00    75.00     -37.66   -5.02   -5.02    0.00000    88.66  LINEAR    2.33198E-03   150.02    9.98565E-02   150.02
  -90.00    75.00    -999.99   -4.97   -4.97    0.00000    90.00  LINEAR    1.37333E-13   149.29    1.00430E-01   149.29
  -85.00    75.00     -37.66   -5.02   -5.02    0.00000   -88.66  LINEAR    2.33198E-03   -29.98    9.98565E-02   150.02
  -80.00    75.00     -31.81   -5.17   -5.16    0.00000   -87.34  LINEAR    4.56895E-03   -27.80    9.81959E-02   152.20
  -75.00    75.00     -28.58   -5.40   -5.38    0.00000   -86.03  LINEAR    6.63190E-03   -24.13    9.56289E-02   155.87
  -70.00    75.00     -26.45   -5.69   -5.65    0.00000   -84.76  LINEAR    8.47364E-03   -18.91    9.24626E-02   161.09
  -65.00    75.00     -24.93   -6.01   -5.95    0.00000   -83.54  LINEAR    1.00934E-02   -12.04    8.91330E-02   167.96
  -60.00    75.00     -23.76   -6.30   -6.22    0.00000   -82.37  LINEAR    1.15486E-02    -3.33    8.61997E-02   176.67
  -55.00    75.00     -22.76   -6.49   -6.39    0.00000   -81.26  LINEAR    1.29610E-02     7.48    8.43325E-02  -172.52
  -50.00    75.00     -21.77   -6.49   -6.37    0.00000   -80.23  LINEAR    1.45174E-02    20.60    8.42887E-02  -159.40
  -45.00    75.00     -20.68   -6.23   -6.08    0.00000   -79.27  LINEAR    1.64585E-02    36.08    8.68664E-02  -143.92
  -40.00    75.00     -19.41   -5.66   -5.48    0.00000   -78.40  LINEAR    1.90455E-02    53.65    9.27868E-02  -126.35
  -35.00    75.00     -17.97   -4.80   -4.59    0.00000   -77.62  LINEAR    2.24920E-02    72.72    1.02473E-01  -107.28
  -30.00    75.00     -16.42   -3.74   -3.51    0.00000   -76.94  LINEAR    2.68699E-02    92.63    1.15793E-01   -87.37
  -25.00    75.00     -14.90   -2.60   -2.36    0.00000   -76.35  LINEAR    3.20329E-02   112.88    1.31907E-01   -67.12
  -20.00    75.00     -13.51   -1.53   -1.26    0.00000   -75.87  LINEAR    3.75933E-02   133.21    1.49304E-01   -46.79
  -15.00    75.00     -12.35   -0.61   -0.33    0.00000   -75.49  LINEAR    4.29673E-02   153.48    1.66013E-01   -26.52
  -10.00    75.00     -11.48    0.09    0.38    0.00000   -75.22  LINEAR    4.74763E-02   173.63    1.79917E-01    -6.37
   -5.00    75.00     -10.95    0.53    0.82    0.00000   -75.05  LINEAR    5.04854E-02  -166.39    1.89134E-01    13.61
    0.00    75.00     -10.77    0.67    0.97    0.00000   -75.00  LINEAR    5.15430E-02  -146.69    1.92361E-01    33.31
 -180.00    80.00     -14.23    0.84    0.97    0.00000    80.00  LINEAR    3.45815E-02    33.31    1.96121E-01    33.31
 -175.00    80.00     -14.33    0.77    0.91    0.00000    80.04  LINEAR    3.41883E-02    20.14    1.94632E-01    20.14
 -170.00    80.00     -14.63    0.58    0.71    0.00000    80.15  LINEAR    3.30430E-02     6.88    1.90287E-01     6.88
 -165.00    80.00     -15.11    0.26    0.38    0.00000    80.33  LINEAR    3.12423E-02    -6.37    1.83434E-01    -6.37
 -160.00    80.00     -15.78   -0.17   -0.05    0.00000    80.59  LINEAR    2.89309E-02   -19.51    1.74605E-01   -19.51
 -155.00    80.00     -16.62   -0.69   -0.58    0.00000    80.92  LINEAR    2.62793E-02   -32.48    1.64445E-01   -32.48
 -150.00    80.00     -17.60   -1.28   -1.18    0.00000    81.32  LINEAR    2.34611E-02   -45.17    1.53638E-01   -45.17
 -145.00    80.00     -18.72   -1.91   -1.82    0.00000    81.78  LINEAR    2.06309E-02   -57.49    1.42835E-01   -57.49
 -140.00    80.00     -19.95   -2.56   -2.48    0.00000    82.31  LINEAR    1.79094E-02   -69.34    1.32589E-01   -69.34
 -135.00    80.00     -21.27   -3.19   -3.12    0.00000    82.89  LINEAR    1.53756E-02   -80.59    1.23319E-01   -80.59
 -130.00    80.00     -22.69   -3.77   -3.72    0.00000    83.53  LINEAR    1.30666E-02   -91.10    1.15286E-01   -91.10
 -125.00    80.00     -24.19   -4.29   -4.25    0.00000    84.22  LINEAR    1.09839E-02  -100.73    1.08604E-01  -100.73
 -120.00    80.00     -25.83   -4.73   -4.70    0.00000    84.96  LINEAR    9.10381E-03  -109.33    1.03261E-01  -109.33
 -115.00    80.00     -27.64   -5.08   -5.06    0.00000    85.74  LINEAR    7.38861E-03  -116.77    9.91507E-02  -116.77
[...]
  -60.00   340.00      -0.31   -3.07    1.54    0.00000    36.05  LINEAR    1.71816E-01  -133.38    1.25071E-01  -133.38
  -55.00   340.00      -2.11   -6.06   -0.64    0.00000    32.40  LINEAR    1.39676E-01   -97.41    8.86332E-02   -97.41
  -50.00   340.00      -6.38  -11.32   -5.17    0.00000    29.52  LINEAR    8.54093E-02   -58.04    4.83619E-02   -58.04
  -45.00   340.00     -13.31  -19.08  -12.29    0.00000    27.24  LINEAR    3.84519E-02   -15.98    1.97924E-02   -15.98
  -40.00   340.00     -14.31  -20.78  -13.43    0.00000    25.41  LINEAR    3.42650E-02    45.57    1.62803E-02    45.57
  -35.00   340.00      -6.32  -13.37   -5.54    0.00000    23.96  LINEAR    8.59590E-02   108.41    3.81938E-02   108.41
  -30.00   340.00      -1.22   -8.75   -0.52    0.00000    22.80  LINEAR    1.54624E-01   166.76    6.49850E-02   166.76
  -25.00   340.00       0.01   -7.91    0.66    0.00000    21.88  LINEAR    1.78218E-01  -134.08    7.15719E-02  -134.08
  -20.00   340.00      -2.25  -10.49   -1.64    0.00000    21.17  LINEAR    1.37403E-01   -75.84    5.32203E-02   -75.84
  -15.00   340.00      -6.23  -14.71   -5.65    0.00000    20.65  LINEAR    8.68864E-02   -18.91    3.27396E-02   -18.91
  -10.00   340.00      -5.89  -14.54   -5.34    0.00000    20.28  LINEAR    9.03205E-02    57.05    3.33811E-02    57.05
   -5.00   340.00      -1.49  -10.24   -0.95    0.00000    20.07  LINEAR    1.49892E-01   139.51    5.47648E-02   139.51
    0.00   340.00       0.43   -8.35    0.97    0.00000    20.00  LINEAR    1.87137E-01  -146.69    6.81122E-02  -146.69
 -180.00   345.00       0.67  -10.77    0.97    0.00000   -15.00  LINEAR    1.92361E-01    33.31    5.15430E-02  -146.69
 -175.00   345.00      -1.36  -12.76   -1.06    0.00000   -15.05  LINEAR    1.52250E-01   -42.66    4.09511E-02   137.34
 -170.00   345.00      -5.85  -17.16   -5.54    0.00000   -15.22  LINEAR    9.07832E-02  -127.80    2.47005E-02    52.20
 -165.00   345.00      -5.70  -16.84   -5.38    0.00000   -15.50  LINEAR    9.23704E-02   155.87    2.56237E-02   -24.13
 -160.00   345.00      -1.56  -12.46   -1.22    0.00000   -15.92  LINEAR    1.48790E-01    97.52    4.24268E-02   -82.48
 -155.00   345.00       0.35  -10.23    0.71    0.00000   -16.47  LINEAR    1.85350E-01    37.05    5.47985E-02  -142.95
 -150.00   345.00      -1.54  -11.73   -1.15    0.00000   -17.19  LINEAR    1.49017E-01   -24.12    4.61061E-02   155.88
 -145.00   345.00      -7.66  -17.37   -7.22    0.00000   -18.11  LINEAR    7.36751E-02   -84.89    2.40995E-02    95.11
 -140.00   345.00     -15.17  -24.29  -14.67    0.00000   -19.28  LINEAR    3.10512E-02  -153.52    1.08612E-02    26.48
 -135.00   345.00     -10.44  -18.87   -9.86    0.00000   -20.75  LINEAR    5.35061E-02   149.73    2.02755E-02   -30.27
 -130.00   345.00      -3.76  -11.36   -3.07    0.00000   -22.63  LINEAR    1.15414E-01   106.35    4.81108E-02   -73.65
 -125.00   345.00      -0.23   -6.84    0.63    0.00000   -25.04  LINEAR    1.73353E-01    65.13    8.09826E-02  -114.87
 -120.00   345.00       0.95   -4.47    2.04    0.00000   -28.19  LINEAR    1.98496E-01    27.84    1.06373E-01  -152.16
 -115.00   345.00       0.46   -3.50    1.93    0.00000   -32.38  LINEAR    1.87723E-01    -4.51    1.19020E-01   175.49
 -110.00   345.00      -1.28   -3.40    0.80    0.00000   -38.08  LINEAR    1.53647E-01   -31.37    1.20372E-01   148.63
 -105.00   345.00      -4.09   -3.79   -0.93    0.00000   -45.99  LINEAR    1.11149E-01   -52.43    1.15070E-01   127.57
 -100.00   345.00      -8.12   -4.35   -2.83    0.00000   -57.05  LINEAR    6.99238E-02   -67.52    1.07896E-01   112.48
  -95.00   345.00     -14.57   -4.81   -4.37    0.00000   -71.98  LINEAR    3.32815E-02   -76.56    1.02320E-01   103.44
  -90.00   345.00    -999.99   -4.99   -4.99    0.00000   -90.00  LINEAR    1.90961E-12   -79.57    1.00262E-01   100.43
  -85.00   345.00     -14.57   -4.81   -4.37    0.00000    71.98  LINEAR    3.32815E-02   103.44    1.02320E-01   103.44
  -80.00   345.00      -8.12   -4.35   -2.83    0.00000    57.05  LINEAR    6.99238E-02   112.48    1.07896E-01   112.48
  -75.00   345.00      -4.09   -3.79   -0.93    0.00000    45.99  LINEAR    1.11149E-01   127.57    1.15070E-01   127.57
  -70.00   345.00      -1.28   -3.40    0.80    0.00000    38.08  LINEAR    1.53647E-01   148.63    1.20372E-01   148.63
  -65.00   345.00       0.46   -3.50    1.93    0.00000    32.38  LINEAR    1.87723E-01   175.49    1.19020E-01   175.49
  -60.00   345.00       0.95   -4.47    2.04    0.00000    28.19  LINEAR    1.98496E-01  -152.16    1.06373E-01  -152.16
  -55.00   345.00      -0.23   -6.84    0.63    0.00000    25.04  LINEAR    1.73353E-01  -114.87    8.09826E-02  -114.87
  -50.00   345.00      -3.76  -11.36   -3.07    0.00000    22.63  LINEAR    1.15414E-01   -73.65    4.81108E-02   -73.65
  -45.00   345.00     -10.44  -18.87   -9.86    0.00000    20.75  LINEAR    5.35061E-02   -30.27    2.02755E-02   -30.27
  -40.00   345.00     -15.17  -24.29  -14.67    0.00000    19.28  LINEAR    3.10512E-02    26.48    1.08612E-02    26.48
  -35.00   345.00      -7.66  -17.37   -7.22    0.00000    18.11  LINEAR    7.36751E-02    95.11    2.40995E-02    95.11
  -30.00   345.00      -1.54  -11.73   -1.15    0.00000    17.19  LINEAR    1.49017E-01   155.88    4.61061E-02   155.88
  -25.00   345.00       0.35  -10.23    0.71    0.00000    16.47  LINEAR    1.85350E-01  -142.95    5.47985E-02  -142.95
  -20.00   345.00      -1.56  -12.46   -1.22    0.00000    15.92  LINEAR    1.48790E-01   -82.48    4.24268E-02   -82.48
  -15.00   345.00      -5.70  -16.84   -5.38    0.00000    15.50  LINEAR    9.23704E-02   -24.13    2.56237E-02   -24.13
  -10.00   345.00      -5.85  -17.16   -5.54    0.00000    15.22  LINEAR    9.07832E-02    52.20    2.47005E-02    52.20
   -5.00   345.00      -1.36  -12.76   -1.06    0.00000    15.05  LINEAR    1.52250E-01   137.34    4.09511E-02   137.34
    0.00   345.00       0.67  -10.77    0.97    0.00000    15.00  LINEAR    1.92361E-01  -146.69    5.15430E-02  -146.69
 -180.00   350.00       0.84  -14.23    0.97    0.00000   -10.00  LINEAR    1.96121E-01    33.31    3.45815E-02  -146.69
 -175.00   350.00      -1.27  -16.31   -1.13    0.00000   -10.04  LINEAR    1.53873E-01   -44.22    2.72357E-02   135.78
 -170.00   350.00      -5.81  -20.75   -5.67    0.00000   -10.15  LINEAR    9.11877E-02  -131.29    1.63269E-02    48.71
 -165.00   350.00      -5.30  -20.07   -5.16    0.00000   -10.35  LINEAR    9.67041E-02   152.20    1.76531E-02   -27.80
 -160.00   350.00      -1.08  -15.62   -0.93    0.00000   -10.63  LINEAR    1.57128E-01    92.70    2.94840E-02   -87.30
 -155.00   350.00       0.54  -13.68    0.70    0.00000   -11.01  LINEAR    1.89509E-01    30.63    3.68699E-02  -149.37
 -150.00   350.00      -1.87  -15.69   -1.69    0.00000   -11.51  LINEAR    1.43606E-01   -31.99    2.92389E-02   148.01
 -145.00   350.00      -8.75  -22.09   -8.55    0.00000   -12.15  LINEAR    6.50434E-02   -94.77    1.40010E-02    85.23
 -140.00   350.00     -15.02  -27.78  -14.79    0.00000   -12.96  LINEAR    3.15903E-02  -166.94    7.27140E-03    13.06
 -135.00   350.00      -8.33  -20.39   -8.07    0.00000   -14.00  LINEAR    6.82179E-02   139.74    1.70111E-02   -40.26
 -130.00   350.00      -2.10  -13.34   -1.79    0.00000   -15.34  LINEAR    1.39748E-01    94.89    3.83350E-02   -85.11
 -125.00   350.00       0.90   -9.34    1.30    0.00000   -17.09  LINEAR    1.97554E-01    52.46    6.07315E-02  -127.54
 -120.00   350.00       1.64   -7.41    2.15    0.00000   -19.43  LINEAR    2.14981E-01    14.26    7.58139E-02  -165.74
 -115.00   350.00       0.76   -6.83    1.46    0.00000   -22.65  LINEAR    1.94342E-01   -18.77    8.10842E-02   161.23
 -110.00   350.00      -1.34   -7.09   -0.32    0.00000   -27.27  LINEAR    1.52580E-01   -46.13    7.86618E-02   133.87
 -105.00   350.00      -4.48   -7.82   -2.83    0.00000   -34.27  LINEAR    1.06257E-01   -67.52    7.23905E-02   112.48
 -100.00   350.00      -8.79   -8.65   -5.71    0.00000   -45.44  LINEAR    6.47290E-02   -82.78    6.57276E-02    97.22
  -95.00   350.00     -15.43   -9.31   -8.36    0.00000   -63.70  LINEAR    3.01307E-02   -91.90    6.09581E-02    88.10
  -90.00   350.00    -999.99   -9.56   -9.56    0.00000   -90.00  LINEAR    1.71496E-12   -94.93    5.92532E-02    85.07
  -85.00   350.00     -15.43   -9.31   -8.36    0.00000    63.70  LINEAR    3.01307E-02    88.10    6.09581E-02    88.10
  -80.00   350.00      -8.79   -8.65   -5.71    0.00000    45.44  LINEAR    6.47290E-02    97.22    6.57276E-02    97.22
  -75.00   350.00      -4.48   -7.82   -2.83    0.00000    34.27  LINEAR    1.06257E-01   112.48    7.23905E-02   112.48
  -70.00   350.00      -1.34   -7.09   -0.32    0.00000    27.27  LINEAR    1.52580E-01   133.87    7.86618E-02   133.87
  -65.00   350.00       0.76   -6.83    1.46    0.00000    22.65  LINEAR    1.94342E-01   161.23    8.10842E-02   161.23
  -60.00   350.00       1.64   -7.41    2.15    0.00000    19.43  LINEAR    2.14981E-01  -165.74    7.58139E-02  -165.74
  -55.00   350.00       0.90   -9.34    1.30    0.00000    17.09  LINEAR    1.97554E-01  -127.54    6.07315E-02  -127.54
  -50.00   350.00      -2.10  -13.34   -1.79    0.00000    15.34  LINEAR    1.39748E-01   -85.11    3.83350E-02   -85.11
  -45.00   350.00      -8.33  -20.39   -8.07    0.00000    14.00  LINEAR    6.82179E-02   -40.26    1.70111E-02   -40.26
  -40.00   350.00     -15.02  -27.78  -14.79    0.00000    12.96  LINEAR    3.15903E-02    13.06    7.27140E-03    13.06
  -35.00   350.00      -8.75  -22.09   -8.55    0.00000    12.15  LINEAR    6.50434E-02    85.23    1.40010E-02    85.23
  -30.00   350.00      -1.87  -15.69   -1.69    0.00000    11.51  LINEAR    1.43606E-01   148.01    2.92389E-02   148.01
  -25.00   350.00       0.54  -13.68    0.70    0.00000    11.01  LINEAR    1.89509E-01  -149.37    3.68699E-02  -149.37
  -20.00   350.00      -1.08  -15.62   -0.93    0.00000    10.63  LINEAR    1.57128E-01   -87.30    2.94840E-02   -87.30
  -15.00   350.00      -5.30  -20.07   -5.16    0.00000    10.35  LINEAR    9.67041E-02   -27.80    1.76531E-02   -27.80
  -10.00   350.00      -5.81  -20.75   -5.67    0.00000    10.15  LINEAR    9.11877E-02    48.71    1.63269E-02    48.71
   -5.00   350.00      -1.27  -16.31   -1.13    0.00000    10.04  LINEAR    1.53873E-01   135.78    2.72357E-02   135.78
    0.00   350.00       0.84  -14.23    0.97    0.00000    10.00  LINEAR    1.96121E-01  -146.69    3.45815E-02  -146.69
 -180.00   355.00       0.94  -20.22    0.97    0.00000    -5.00  LINEAR    1.98389E-01    33.31    1.73568E-02  -146.69
 -175.00   355.00      -1.21  -22.34   -1.18    0.00000    -5.02  LINEAR    1.54823E-01   -45.17    1.35970E-02   134.83
 -170.00   355.00      -5.78  -26.81   -5.75    0.00000    -5.08  LINEAR    9.14652E-02  -133.39    8.12561E-03    46.61
 -165.00   355.00      -5.06  -25.92   -5.02    0.00000    -5.18  LINEAR    9.94765E-02   150.02    9.01008E-03   -29.98
 -160.00   355.00      -0.81  -21.43   -0.77    0.00000    -5.32  LINEAR    1.62185E-01    89.77    1.51000E-02   -90.23
 -155.00   355.00       0.64  -19.67    0.68    0.00000    -5.51  LINEAR    1.91584E-01    26.74    1.84942E-02  -153.26
 -150.00   355.00      -2.10  -22.01   -2.05    0.00000    -5.77  LINEAR    1.39828E-01   -36.76    1.41259E-02   143.24
 -145.00   355.00      -9.43  -28.86   -9.39    0.00000    -6.10  LINEAR    6.00830E-02  -100.89    6.41710E-03    79.11
 -140.00   355.00     -14.59  -33.44  -14.53    0.00000    -6.52  LINEAR    3.31919E-02  -174.50    3.79079E-03     5.50
 -135.00   355.00      -7.10  -25.25   -7.03    0.00000    -7.05  LINEAR    7.86491E-02   133.69    9.73107E-03   -46.31
 -130.00   355.00      -1.19  -18.51   -1.11    0.00000    -7.75  LINEAR    1.55273E-01    87.91    2.11339E-02   -92.09
 -125.00   355.00       1.51  -14.83    1.61    0.00000    -8.67  LINEAR    2.11737E-01    44.78    3.22966E-02  -135.22
 -120.00   355.00       1.97  -13.17    2.10    0.00000    -9.92  LINEAR    2.23450E-01     6.06    3.90988E-02  -173.94
 -115.00   355.00       0.85  -12.83    1.04    0.00000   -11.70  LINEAR    1.96408E-01   -27.37    4.06595E-02   152.63
 -110.00   355.00      -1.48  -13.32   -1.21    0.00000   -14.35  LINEAR    1.50128E-01   -55.01    3.84026E-02   124.99
 -105.00   355.00      -4.84  -14.26   -4.37    0.00000   -18.68  LINEAR    1.01930E-01   -76.56    3.44555E-02   103.44
 -100.00   355.00      -9.34  -15.30   -8.36    0.00000   -26.74  LINEAR    6.07262E-02   -91.90    3.05955E-02    88.10
  -95.00   355.00     -16.12  -16.09  -13.09    0.00000   -45.11  LINEAR    2.78221E-02  -101.03    2.79284E-02    78.97
  -90.00   355.00    -999.99  -16.39  -16.39    0.00000   -90.00  LINEAR    1.57433E-12  -104.05    2.69890E-02    75.95
  -85.00   355.00     -16.12  -16.09  -13.09    0.00000    45.11  LINEAR    2.78221E-02    78.97    2.79284E-02    78.97
  -80.00   355.00      -9.34  -15.30   -8.36    0.00000    26.74  LINEAR    6.07262E-02    88.10    3.05955E-02    88.10
  -75.00   355.00      -4.84  -14.26   -4.37    0.00000    18.68  LINEAR    1.01930E-01   103.44    3.44555E-02   103.44
  -70.00   355.00      -1.48  -13.32   -1.21    0.00000    14.35  LINEAR    1.50128E-01   124.99    3.84026E-02   124.99
  -65.00   355.00       0.85  -12.83    1.04    0.00000    11.70  LINEAR    1.96408E-01   152.63    4.06595E-02   152.63
  -60.00   355.00       1.97  -13.17    2.10    0.00000     9.92  LINEAR    2.23450E-01  -173.94    3.90988E-02  -173.94
  -55.00   355.00       1.51  -14.83    1.61    0.00000     8.67  LINEAR    2.11737E-01  -135.22    3.22966E-02  -135.22
  -50.00   355.00      -1.19  -18.51   -1.11    0.00000     7.75  LINEAR    1.55273E-01   -92.09    2.11339E-02   -92.09
  -45.00   355.00      -7.10  -25.25   -7.03    0.00000     7.05  LINEAR    7.86491E-02   -46.31    9.73107E-03   -46.31
  -40.00   355.00     -14.59  -33.44  -14.53    0.00000     6.52  LINEAR    3.31919E-02     5.50    3.79079E-03     5.50
  -35.00   355.00      -9.43  -28.86   -9.39    0.00000     6.10  LINEAR    6.00830E-02    79.11    6.41710E-03    79.11
  -30.00   355.00      -2.10  -22.01   -2.05    0.00000     5.77  LINEAR    1.39828E-01   143.24    1.41259E-02   143.24
  -25.00   355.00       0.64  -19.67    0.68    0.00000     5.51  LINEAR    1.91584E-01  -153.26    1.84942E-02  -153.26
  -20.00   355.00      -0.81  -21.43   -0.77    0.00000     5.32  LINEAR    1.62185E-01   -90.23    1.51000E-02   -90.23
  -15.00   355.00      -5.06  -25.92   -5.02    0.00000     5.18  LINEAR    9.94765E-02   -29.98    9.01008E-03   -29.98
  -10.00   355.00      -5.78  -26.81   -5.75    0.00000     5.08  LINEAR    9.14652E-02    46.61    8.12561E-03    46.61
   -5.00   355.00      -1.21  -22.34   -1.18    0.00000     5.02  LINEAR    1.54823E-01   134.83    1.35970E-02   134.83
    0.00   355.00       0.94  -20.22    0.97    0.00000     5.00  LINEAR    1.98389E-01  -146.69    1.73568E-02  -146.69
 -180.00   360.00       0.97 -999.99    0.97    0.00000     0.00  LINEAR    1.99147E-01    33.31    4.06531E-12    33.31
 -175.00   360.00      -1.20 -999.99   -1.20    0.00000     0.00  LINEAR    1.55135E-01   -45.49    3.17898E-12   -45.49
 -170.00   360.00      -5.78 -999.99   -5.78    0.00000     0.00  LINEAR    9.15640E-02  -134.08    1.89799E-12  -134.08
 -165.00   360.00      -4.97 -999.99   -4.97    0.00000     0.00  LINEAR    1.00430E-01   149.29    2.12246E-12   149.29
 -160.00   360.00      -0.72 -999.99   -0.72    0.00000     0.00  LINEAR    1.63877E-01    88.78    3.56002E-12    88.78
 -155.00   360.00       0.67 -999.99    0.67    0.00000     0.00  LINEAR    1.92202E-01    25.44    4.32915E-12    25.44
 -150.00   360.00      -2.18 -999.99   -2.18    0.00000     0.00  LINEAR    1.38485E-01   -38.35    3.26431E-12   -38.35
 -145.00   360.00      -9.67 -999.99   -9.67    0.00000     0.00  LINEAR    5.84834E-02  -102.98    1.45743E-12  -102.98
 -140.00   360.00     -14.39 -999.99  -14.39    0.00000     0.00  LINEAR    3.39507E-02  -176.91    9.04722E-13  -176.91
 -135.00   360.00      -6.69 -999.99   -6.69    0.00000     0.00  LINEAR    8.23912E-02   131.66    2.37857E-12   131.66
 -130.00   360.00      -0.90 -999.99   -0.90    0.00000     0.00  LINEAR    1.60574E-01    85.57    5.09951E-12    85.57
 -125.00   360.00       1.69 -999.99    1.69    0.00000     0.00  LINEAR    2.16366E-01    42.20    7.70048E-12    42.20
 -120.00   360.00       2.07 -999.99    2.07    0.00000     0.00  LINEAR    2.25999E-01     3.31    9.22692E-12     3.31
 -115.00   360.00       0.87 -999.99    0.87    0.00000     0.00  LINEAR    1.96757E-01   -30.24    9.50394E-12   -30.24
 -110.00   360.00      -1.55 -999.99   -1.55    0.00000     0.00  LINEAR    1.49003E-01   -57.97    8.89335E-12   -57.97
 -105.00   360.00      -4.99 -999.99   -4.99    0.00000     0.00  LINEAR    1.00262E-01   -79.57    7.90788E-12   -79.57
 -100.00   360.00      -9.56 -999.99   -9.56    0.00000     0.00  LINEAR    5.92532E-02   -94.93    6.96566E-12   -94.93
  -95.00   360.00     -16.39 -999.99  -16.39    0.00000     0.00  LINEAR    2.69890E-02  -104.05    6.32137E-12  -104.05
  -90.00   360.00    -999.99 -999.99 -999.99    0.00000     0.00            1.52386E-12  -107.07    6.09546E-12  -107.07
  -85.00   360.00     -16.39 -999.99  -16.39    0.00000     0.00  LINEAR    2.69890E-02    75.95    6.32137E-12  -104.05
  -80.00   360.00      -9.56 -999.99   -9.56    0.00000     0.00  LINEAR    5.92532E-02    85.07    6.96566E-12   -94.93
  -75.00   360.00      -4.99 -999.99   -4.99    0.00000     0.00  LINEAR    1.00262E-01   100.43    7.90788E-12   -79.57
  -70.00   360.00      -1.55 -999.99   -1.55    0.00000     0.00  LINEAR    1.49003E-01   122.03    8.89335E-12   -57.97
  -65.00   360.00       0.87 -999.99    0.87    0.00000     0.00  LINEAR    1.96757E-01   149.76    9.50394E-12   -30.24
  -60.00   360.00       2.07 -999.99    2.07    0.00000     0.00  LINEAR    2.25999E-01  -176.69    9.22692E-12     3.31
  -55.00   360.00       1.69 -999.99    1.69    0.00000     0.00  LINEAR    2.16366E-01  -137.80    7.70048E-12    42.20
  -50.00   360.00      -0.90 -999.99   -0.90    0.00000     0.00  LINEAR    1.60574E-01   -94.43    5.09951E-12    85.57
  -45.00   360.00      -6.69 -999.99   -6.69    0.00000     0.00  LINEAR    8.23912E-02   -48.34    2.37857E-12   131.66
  -40.00   360.00     -14.39 -999.99  -14.39    0.00000     0.00  LINEAR    3.39507E-02     3.09    9.04722E-13  -176.91
  -35.00   360.00      -9.67 -999.99   -9.67    0.00000     0.00  LINEAR    5.84834E-02    77.02    1.45743E-12  -102.98
  -30.00   360.00      -2.18 -999.99   -2.18    0.00000     0.00  LINEAR    1.38485E-01   141.65    3.26431E-12   -38.35
  -25.00   360.00       0.67 -999.99    0.67    0.00000     0.00  LINEAR    1.92202E-01  -154.56    4.32915E-12    25.44
  -20.00   360.00      -0.72 -999.99   -0.72    0.00000     0.00  LINEAR    1.63877E-01   -91.22    3.56002E-12    88.78
  -15.00   360.00      -4.97 -999.99   -4.97    0.00000     0.00  LINEAR    1.00430E-01   -30.71    2.12246E-12   149.29
  -10.00   360.00      -5.78 -999.99   -5.78    0.00000     0.00  LINEAR    9.15640E-02    45.92    1.89799E-12  -134.08
   -5.00   360.00      -1.20 -999.99   -1.20    0.00000     0.00  LINEAR    1.55135E-01   134.51    3.17898E-12   -45.49
    0.00   360.00       0.97 -999.99    0.97    0.00000     0.00  LINEAR    1.99147E-01  -146.69    4.06531E-12    33.31


   AVERAGE POWER GAIN= 6.65977E-01       SOLID ANGLE USED IN AVERAGING=( 4.0000)*PI STERADIANS.








 ***** DATA CARD NO.  5   EN   0    37    73  1003 -1.80000E+02  0.00000E+00  5.00000E+00  5.00000E+00  0.00000E+00  0.00000E+00

 RUN TIME =     0.031
